data_con31.0_1.5nm_CS_full
_audit_creation_date              2024-08-20
_audit_creation_method            'Materials Studio'
_symmetry_space_group_name_H-M    'P1'
_symmetry_Int_Tables_number       1
_symmetry_cell_setting            triclinic
loop_
_symmetry_equiv_pos_as_xyz
  x,y,z
_cell_length_a                    45.0000
_cell_length_b                    45.0000
_cell_length_c                    45.0000
_cell_angle_alpha                 90.0000
_cell_angle_beta                  90.0000
_cell_angle_gamma                 90.0000
loop_
_atom_site_label
_atom_site_type_symbol
_atom_site_fract_x
_atom_site_fract_y
_atom_site_fract_z
_atom_site_U_iso_or_equiv
_atom_site_adp_type
_atom_site_occupancy
Co1    Co    0.49921   0.50000   0.49791   0.00000  Uiso   1.00
Co2    Co    0.45187   0.50000   0.47046   0.00000  Uiso   1.00
Co3    Co    0.45187   0.50000   0.52537   0.00000  Uiso   1.00
Co4    Co    0.54655   0.50000   0.47046   0.00000  Uiso   1.00
Co5    Co    0.54655   0.50000   0.52537   0.00000  Uiso   1.00
Co6    Co    0.49921   0.50000   0.44300   0.00000  Uiso   1.00
Co7    Co    0.49921   0.50000   0.55283   0.00000  Uiso   1.00
Co8    Co    0.48343   0.45488   0.47052   0.00000  Uiso   1.00
Co9    Co    0.48343   0.54512   0.52531   0.00000  Uiso   1.00
Co10   Co    0.53077   0.54512   0.49785   0.00000  Uiso   1.00
Co11   Co    0.53077   0.45488   0.49798   0.00000  Uiso   1.00
Co12   Co    0.48343   0.54512   0.47039   0.00000  Uiso   1.00
Co13   Co    0.48343   0.45488   0.52543   0.00000  Uiso   1.00
Co14   Co    0.43610   0.54512   0.49785   0.00000  Uiso   1.00
Co15   Co    0.43610   0.45488   0.49798   0.00000  Uiso   1.00
Co16   Co    0.53077   0.45488   0.44306   0.00000  Uiso   1.00
Co17   Co    0.53077   0.54512   0.55276   0.00000  Uiso   1.00
Co18   Co    0.53077   0.54512   0.44294   0.00000  Uiso   1.00
Co19   Co    0.53077   0.45488   0.55289   0.00000  Uiso   1.00
Co20   Co    0.49921   0.59023   0.49779   0.00000  Uiso   1.00
Co21   Co    0.49921   0.40977   0.49804   0.00000  Uiso   1.00
Co22   Co    0.40454   0.50000   0.49791   0.00000  Uiso   1.00
Co23   Co    0.59389   0.50000   0.49791   0.00000  Uiso   1.00
Co24   Co    0.43610   0.45488   0.44306   0.00000  Uiso   1.00
Co25   Co    0.43610   0.54512   0.55276   0.00000  Uiso   1.00
Co26   Co    0.45187   0.50000   0.41554   0.00000  Uiso   1.00
Co27   Co    0.45187   0.50000   0.58028   0.00000  Uiso   1.00
Co28   Co    0.57811   0.45488   0.47052   0.00000  Uiso   1.00
Co29   Co    0.57811   0.54512   0.52531   0.00000  Uiso   1.00
Co30   Co    0.43610   0.54512   0.44294   0.00000  Uiso   1.00
Co31   Co    0.43610   0.45488   0.55289   0.00000  Uiso   1.00
Co32   Co    0.57811   0.54512   0.47039   0.00000  Uiso   1.00
Co33   Co    0.57811   0.45488   0.52543   0.00000  Uiso   1.00
Co34   Co    0.54655   0.50000   0.41554   0.00000  Uiso   1.00
Co35   Co    0.54655   0.50000   0.58028   0.00000  Uiso   1.00
Co36   Co    0.48343   0.45488   0.41561   0.00000  Uiso   1.00
Co37   Co    0.48343   0.54512   0.58022   0.00000  Uiso   1.00
Co38   Co    0.48343   0.54512   0.41548   0.00000  Uiso   1.00
Co39   Co    0.48343   0.45488   0.58035   0.00000  Uiso   1.00
Co40   Co    0.45187   0.40977   0.47058   0.00000  Uiso   1.00
Co41   Co    0.45187   0.59023   0.52524   0.00000  Uiso   1.00
Co42   Co    0.45187   0.59023   0.47033   0.00000  Uiso   1.00
Co43   Co    0.45187   0.40977   0.52550   0.00000  Uiso   1.00
Co44   Co    0.54655   0.40977   0.47058   0.00000  Uiso   1.00
Co45   Co    0.54655   0.59023   0.52524   0.00000  Uiso   1.00
Co46   Co    0.49921   0.40977   0.44313   0.00000  Uiso   1.00
Co47   Co    0.49921   0.59023   0.55270   0.00000  Uiso   1.00
Co48   Co    0.54655   0.59023   0.47033   0.00000  Uiso   1.00
Co49   Co    0.54655   0.40977   0.52550   0.00000  Uiso   1.00
Co50   Co    0.49921   0.59023   0.44287   0.00000  Uiso   1.00
Co51   Co    0.49921   0.40977   0.55295   0.00000  Uiso   1.00
Co52   Co    0.40454   0.50000   0.44300   0.00000  Uiso   1.00
Co53   Co    0.40454   0.50000   0.55283   0.00000  Uiso   1.00
Co54   Co    0.59389   0.50000   0.44300   0.00000  Uiso   1.00
Co55   Co    0.59389   0.50000   0.55283   0.00000  Uiso   1.00
Co56   Co    0.49921   0.50000   0.38809   0.00000  Uiso   1.00
Co57   Co    0.49921   0.50000   0.60774   0.00000  Uiso   1.00
Co58   Co    0.38876   0.45488   0.47052   0.00000  Uiso   1.00
Co59   Co    0.38876   0.54512   0.52531   0.00000  Uiso   1.00
Co60   Co    0.38876   0.54512   0.47039   0.00000  Uiso   1.00
Co61   Co    0.38876   0.45488   0.52543   0.00000  Uiso   1.00
Co62   Co    0.57811   0.45488   0.41561   0.00000  Uiso   1.00
Co63   Co    0.57811   0.54512   0.58022   0.00000  Uiso   1.00
Co64   Co    0.57811   0.54512   0.41548   0.00000  Uiso   1.00
Co65   Co    0.57811   0.45488   0.58035   0.00000  Uiso   1.00
Co66   Co    0.53077   0.45488   0.38815   0.00000  Uiso   1.00
Co67   Co    0.53077   0.54512   0.60768   0.00000  Uiso   1.00
Co68   Co    0.53077   0.54512   0.38802   0.00000  Uiso   1.00
Co69   Co    0.53077   0.45488   0.60780   0.00000  Uiso   1.00
Co70   Co    0.40454   0.59023   0.49779   0.00000  Uiso   1.00
Co71   Co    0.40454   0.40977   0.49804   0.00000  Uiso   1.00
Co72   Co    0.59389   0.59023   0.49779   0.00000  Uiso   1.00
Co73   Co    0.59389   0.40977   0.49804   0.00000  Uiso   1.00
Co74   Co    0.45187   0.40977   0.41567   0.00000  Uiso   1.00
Co75   Co    0.45187   0.59023   0.58016   0.00000  Uiso   1.00
Co76   Co    0.54655   0.40977   0.41567   0.00000  Uiso   1.00
Co77   Co    0.54655   0.59023   0.58016   0.00000  Uiso   1.00
Co78   Co    0.45187   0.59023   0.41542   0.00000  Uiso   1.00
Co79   Co    0.45187   0.40977   0.58041   0.00000  Uiso   1.00
Co80   Co    0.54655   0.59023   0.41542   0.00000  Uiso   1.00
Co81   Co    0.54655   0.40977   0.58041   0.00000  Uiso   1.00
Co82   Co    0.62545   0.54512   0.49785   0.00000  Uiso   1.00
Co83   Co    0.62545   0.45488   0.49798   0.00000  Uiso   1.00
Co84   Co    0.43610   0.45488   0.38815   0.00000  Uiso   1.00
Co85   Co    0.43610   0.54512   0.60768   0.00000  Uiso   1.00
Co86   Co    0.43610   0.54512   0.38802   0.00000  Uiso   1.00
Co87   Co    0.43610   0.45488   0.60780   0.00000  Uiso   1.00
Co88   Co    0.48343   0.36465   0.47065   0.00000  Uiso   1.00
Co89   Co    0.48343   0.63535   0.52518   0.00000  Uiso   1.00
Co90   Co    0.53077   0.63535   0.49772   0.00000  Uiso   1.00
Co91   Co    0.53077   0.36465   0.49810   0.00000  Uiso   1.00
Co92   Co    0.48343   0.63535   0.47027   0.00000  Uiso   1.00
Co93   Co    0.48343   0.36465   0.52556   0.00000  Uiso   1.00
Co94   Co    0.40454   0.40977   0.44313   0.00000  Uiso   1.00
Co95   Co    0.40454   0.59023   0.55270   0.00000  Uiso   1.00
Co96   Co    0.40454   0.59023   0.44287   0.00000  Uiso   1.00
Co97   Co    0.40454   0.40977   0.55295   0.00000  Uiso   1.00
Co98   Co    0.59389   0.40977   0.44313   0.00000  Uiso   1.00
Co99   Co    0.59389   0.59023   0.55270   0.00000  Uiso   1.00
Co100  Co    0.59389   0.59023   0.44287   0.00000  Uiso   1.00
Co101  Co    0.59389   0.40977   0.55295   0.00000  Uiso   1.00
Co102  Co    0.49921   0.40977   0.38821   0.00000  Uiso   1.00
Co103  Co    0.49921   0.59023   0.60761   0.00000  Uiso   1.00
Co104  Co    0.49921   0.59023   0.38796   0.00000  Uiso   1.00
Co105  Co    0.49921   0.40977   0.60787   0.00000  Uiso   1.00
Co106  Co    0.35720   0.50000   0.47046   0.00000  Uiso   1.00
Co107  Co    0.35720   0.50000   0.52537   0.00000  Uiso   1.00
Co108  Co    0.64122   0.50000   0.47046   0.00000  Uiso   1.00
Co109  Co    0.64122   0.50000   0.52537   0.00000  Uiso   1.00
Co110  Co    0.38876   0.45488   0.41561   0.00000  Uiso   1.00
Co111  Co    0.38876   0.54512   0.58022   0.00000  Uiso   1.00
Co112  Co    0.62545   0.45488   0.44306   0.00000  Uiso   1.00
Co113  Co    0.62545   0.54512   0.55276   0.00000  Uiso   1.00
Co114  Co    0.40454   0.50000   0.38809   0.00000  Uiso   1.00
Co115  Co    0.40454   0.50000   0.60774   0.00000  Uiso   1.00
Co116  Co    0.38876   0.54512   0.41548   0.00000  Uiso   1.00
Co117  Co    0.38876   0.45488   0.58035   0.00000  Uiso   1.00
Co118  Co    0.62545   0.54512   0.44294   0.00000  Uiso   1.00
Co119  Co    0.62545   0.45488   0.55289   0.00000  Uiso   1.00
Co120  Co    0.59389   0.50000   0.38809   0.00000  Uiso   1.00
Co121  Co    0.59389   0.50000   0.60774   0.00000  Uiso   1.00
Co122  Co    0.45187   0.50000   0.36063   0.00000  Uiso   1.00
Co123  Co    0.45187   0.50000   0.63520   0.00000  Uiso   1.00
Co124  Co    0.54655   0.50000   0.36063   0.00000  Uiso   1.00
Co125  Co    0.54655   0.50000   0.63520   0.00000  Uiso   1.00
Co126  Co    0.48343   0.45488   0.36069   0.00000  Uiso   1.00
Co127  Co    0.48343   0.54512   0.63513   0.00000  Uiso   1.00
Co128  Co    0.48343   0.54512   0.36057   0.00000  Uiso   1.00
Co129  Co    0.48343   0.45488   0.63526   0.00000  Uiso   1.00
Co130  Co    0.43610   0.63535   0.49772   0.00000  Uiso   1.00
Co131  Co    0.43610   0.36465   0.49810   0.00000  Uiso   1.00
Co132  Co    0.53077   0.36465   0.44319   0.00000  Uiso   1.00
Co133  Co    0.53077   0.63535   0.55264   0.00000  Uiso   1.00
Co134  Co    0.53077   0.63535   0.44281   0.00000  Uiso   1.00
Co135  Co    0.53077   0.36465   0.55302   0.00000  Uiso   1.00
Co136  Co    0.43610   0.36465   0.44319   0.00000  Uiso   1.00
Co137  Co    0.43610   0.63535   0.55264   0.00000  Uiso   1.00
Co138  Co    0.57811   0.36465   0.47065   0.00000  Uiso   1.00
Co139  Co    0.57811   0.63535   0.52518   0.00000  Uiso   1.00
Co140  Co    0.48343   0.36465   0.41573   0.00000  Uiso   1.00
Co141  Co    0.48343   0.63535   0.58009   0.00000  Uiso   1.00
Co142  Co    0.57811   0.63535   0.47027   0.00000  Uiso   1.00
Co143  Co    0.57811   0.36465   0.52556   0.00000  Uiso   1.00
Co144  Co    0.43610   0.63535   0.44281   0.00000  Uiso   1.00
Co145  Co    0.43610   0.36465   0.55302   0.00000  Uiso   1.00
Co146  Co    0.48343   0.63535   0.41536   0.00000  Uiso   1.00
Co147  Co    0.48343   0.36465   0.58047   0.00000  Uiso   1.00
Co148  Co    0.34142   0.54512   0.49785   0.00000  Uiso   1.00
Co149  Co    0.34142   0.45488   0.49798   0.00000  Uiso   1.00
Co150  Co    0.35720   0.50000   0.41554   0.00000  Uiso   1.00
Co151  Co    0.35720   0.50000   0.58028   0.00000  Uiso   1.00
Co152  Co    0.64122   0.50000   0.41554   0.00000  Uiso   1.00
Co153  Co    0.64122   0.50000   0.58028   0.00000  Uiso   1.00
Co154  Co    0.57811   0.45488   0.36069   0.00000  Uiso   1.00
Co155  Co    0.57811   0.54512   0.63513   0.00000  Uiso   1.00
Co156  Co    0.49921   0.50000   0.33317   0.00000  Uiso   1.00
Co157  Co    0.49921   0.50000   0.66265   0.00000  Uiso   1.00
Co158  Co    0.57811   0.54512   0.36057   0.00000  Uiso   1.00
Co159  Co    0.57811   0.45488   0.63526   0.00000  Uiso   1.00
Co160  Co    0.35720   0.40977   0.47058   0.00000  Uiso   1.00
Co161  Co    0.35720   0.59023   0.52524   0.00000  Uiso   1.00
Co162  Co    0.35720   0.59023   0.47033   0.00000  Uiso   1.00
Co163  Co    0.35720   0.40977   0.52550   0.00000  Uiso   1.00
Co164  Co    0.64122   0.40977   0.47058   0.00000  Uiso   1.00
Co165  Co    0.64122   0.59023   0.52524   0.00000  Uiso   1.00
Co166  Co    0.64122   0.59023   0.47033   0.00000  Uiso   1.00
Co167  Co    0.64122   0.40977   0.52550   0.00000  Uiso   1.00
Co168  Co    0.40454   0.40977   0.38821   0.00000  Uiso   1.00
Co169  Co    0.40454   0.59023   0.60761   0.00000  Uiso   1.00
Co170  Co    0.59389   0.40977   0.38821   0.00000  Uiso   1.00
Co171  Co    0.59389   0.59023   0.60761   0.00000  Uiso   1.00
Co172  Co    0.40454   0.59023   0.38796   0.00000  Uiso   1.00
Co173  Co    0.40454   0.40977   0.60787   0.00000  Uiso   1.00
Co174  Co    0.45187   0.40977   0.36076   0.00000  Uiso   1.00
Co175  Co    0.45187   0.59023   0.63507   0.00000  Uiso   1.00
Co176  Co    0.54655   0.40977   0.36076   0.00000  Uiso   1.00
Co177  Co    0.54655   0.59023   0.63507   0.00000  Uiso   1.00
Co178  Co    0.59389   0.59023   0.38796   0.00000  Uiso   1.00
Co179  Co    0.59389   0.40977   0.60787   0.00000  Uiso   1.00
Co180  Co    0.45187   0.59023   0.36051   0.00000  Uiso   1.00
Co181  Co    0.45187   0.40977   0.63532   0.00000  Uiso   1.00
Co182  Co    0.54655   0.59023   0.36051   0.00000  Uiso   1.00
Co183  Co    0.54655   0.40977   0.63532   0.00000  Uiso   1.00
Co184  Co    0.34142   0.45488   0.44306   0.00000  Uiso   1.00
Co185  Co    0.34142   0.54512   0.55276   0.00000  Uiso   1.00
Co186  Co    0.34142   0.54512   0.44294   0.00000  Uiso   1.00
Co187  Co    0.34142   0.45488   0.55289   0.00000  Uiso   1.00
Co188  Co    0.62545   0.45488   0.38815   0.00000  Uiso   1.00
Co189  Co    0.62545   0.54512   0.60768   0.00000  Uiso   1.00
Co190  Co    0.62545   0.54512   0.38802   0.00000  Uiso   1.00
Co191  Co    0.62545   0.45488   0.60780   0.00000  Uiso   1.00
Co192  Co    0.53077   0.45488   0.33324   0.00000  Uiso   1.00
Co193  Co    0.53077   0.54512   0.66259   0.00000  Uiso   1.00
Co194  Co    0.53077   0.54512   0.33311   0.00000  Uiso   1.00
Co195  Co    0.53077   0.45488   0.66272   0.00000  Uiso   1.00
Co196  Co    0.38876   0.36465   0.47065   0.00000  Uiso   1.00
Co197  Co    0.38876   0.63535   0.52518   0.00000  Uiso   1.00
Co198  Co    0.38876   0.63535   0.47027   0.00000  Uiso   1.00
Co199  Co    0.38876   0.36465   0.52556   0.00000  Uiso   1.00
Co200  Co    0.57811   0.36465   0.41573   0.00000  Uiso   1.00
Co201  Co    0.57811   0.63535   0.58009   0.00000  Uiso   1.00
Co202  Co    0.53077   0.36465   0.38828   0.00000  Uiso   1.00
Co203  Co    0.53077   0.63535   0.60755   0.00000  Uiso   1.00
Co204  Co    0.57811   0.63535   0.41536   0.00000  Uiso   1.00
Co205  Co    0.57811   0.36465   0.58047   0.00000  Uiso   1.00
Co206  Co    0.53077   0.63535   0.38790   0.00000  Uiso   1.00
Co207  Co    0.53077   0.36465   0.60793   0.00000  Uiso   1.00
Co208  Co    0.49921   0.68047   0.49766   0.00000  Uiso   1.00
Co209  Co    0.49921   0.31953   0.49817   0.00000  Uiso   1.00
Co210  Co    0.67278   0.54512   0.52531   0.00000  Uiso   1.00
Co211  Co    0.67278   0.45488   0.47052   0.00000  Uiso   1.00
Co212  Co    0.67278   0.45488   0.52543   0.00000  Uiso   1.00
Co213  Co    0.67278   0.54512   0.47039   0.00000  Uiso   1.00
Co214  Co    0.38876   0.45488   0.36069   0.00000  Uiso   1.00
Co215  Co    0.38876   0.54512   0.63513   0.00000  Uiso   1.00
Co216  Co    0.38876   0.54512   0.36057   0.00000  Uiso   1.00
Co217  Co    0.38876   0.45488   0.63526   0.00000  Uiso   1.00
Co218  Co    0.43610   0.45488   0.33324   0.00000  Uiso   1.00
Co219  Co    0.43610   0.54512   0.66259   0.00000  Uiso   1.00
Co220  Co    0.43610   0.54512   0.33311   0.00000  Uiso   1.00
Co221  Co    0.43610   0.45488   0.66272   0.00000  Uiso   1.00
Co222  Co    0.62545   0.63535   0.49772   0.00000  Uiso   1.00
Co223  Co    0.62545   0.36465   0.49810   0.00000  Uiso   1.00
Co224  Co    0.43610   0.36465   0.38828   0.00000  Uiso   1.00
Co225  Co    0.43610   0.63535   0.60755   0.00000  Uiso   1.00
Co226  Co    0.43610   0.63535   0.38790   0.00000  Uiso   1.00
Co227  Co    0.43610   0.36465   0.60793   0.00000  Uiso   1.00
Co228  Co    0.35720   0.40977   0.41567   0.00000  Uiso   1.00
Co229  Co    0.35720   0.59023   0.58016   0.00000  Uiso   1.00
Co230  Co    0.35720   0.59023   0.41542   0.00000  Uiso   1.00
Co231  Co    0.35720   0.40977   0.58041   0.00000  Uiso   1.00
Co232  Co    0.64122   0.40977   0.41567   0.00000  Uiso   1.00
Co233  Co    0.64122   0.59023   0.58016   0.00000  Uiso   1.00
Co234  Co    0.64122   0.59023   0.41542   0.00000  Uiso   1.00
Co235  Co    0.64122   0.40977   0.58041   0.00000  Uiso   1.00
Co236  Co    0.49921   0.40977   0.33333   0.00000  Uiso   1.00
Co237  Co    0.49921   0.59023   0.66253   0.00000  Uiso   1.00
Co238  Co    0.49921   0.59023   0.33305   0.00000  Uiso   1.00
Co239  Co    0.49921   0.40977   0.66278   0.00000  Uiso   1.00
Co240  Co    0.45187   0.31953   0.47071   0.00000  Uiso   1.00
Co241  Co    0.45187   0.68047   0.52512   0.00000  Uiso   1.00
Co242  Co    0.49921   0.31953   0.44325   0.00000  Uiso   1.00
Co243  Co    0.49921   0.68047   0.55258   0.00000  Uiso   1.00
Co244  Co    0.54655   0.31953   0.47071   0.00000  Uiso   1.00
Co245  Co    0.54655   0.68047   0.52512   0.00000  Uiso   1.00
Co246  Co    0.45187   0.68047   0.47021   0.00000  Uiso   1.00
Co247  Co    0.45187   0.31953   0.52562   0.00000  Uiso   1.00
Co248  Co    0.54655   0.68047   0.47021   0.00000  Uiso   1.00
Co249  Co    0.54655   0.31953   0.52562   0.00000  Uiso   1.00
Co250  Co    0.49921   0.68047   0.44275   0.00000  Uiso   1.00
Co251  Co    0.49921   0.31953   0.55308   0.00000  Uiso   1.00
Co252  Co    0.30986   0.50000   0.49791   0.00000  Uiso   1.00
Co253  Co    0.68856   0.50000   0.49791   0.00000  Uiso   1.00
Co254  Co    0.40454   0.50000   0.33317   0.00000  Uiso   1.00
Co255  Co    0.40454   0.50000   0.66265   0.00000  Uiso   1.00
Co256  Co    0.59389   0.50000   0.33317   0.00000  Uiso   1.00
Co257  Co    0.59389   0.50000   0.66265   0.00000  Uiso   1.00
Co258  Co    0.38876   0.36465   0.41573   0.00000  Uiso   1.00
Co259  Co    0.38876   0.63535   0.58009   0.00000  Uiso   1.00
Co260  Co    0.62545   0.36465   0.44319   0.00000  Uiso   1.00
Co261  Co    0.62545   0.63535   0.55264   0.00000  Uiso   1.00
Co262  Co    0.38876   0.63535   0.41536   0.00000  Uiso   1.00
Co263  Co    0.38876   0.36465   0.58047   0.00000  Uiso   1.00
Co264  Co    0.62545   0.63535   0.44281   0.00000  Uiso   1.00
Co265  Co    0.62545   0.36465   0.55302   0.00000  Uiso   1.00
Co266  Co    0.48343   0.36465   0.36082   0.00000  Uiso   1.00
Co267  Co    0.48343   0.63535   0.63501   0.00000  Uiso   1.00
Co268  Co    0.48343   0.63535   0.36044   0.00000  Uiso   1.00
Co269  Co    0.48343   0.36465   0.63539   0.00000  Uiso   1.00
Co270  Co    0.30986   0.50000   0.44300   0.00000  Uiso   1.00
Co271  Co    0.30986   0.50000   0.55283   0.00000  Uiso   1.00
Co272  Co    0.68856   0.50000   0.55283   0.00000  Uiso   1.00
Co273  Co    0.68856   0.50000   0.44300   0.00000  Uiso   1.00
Co274  Co    0.34142   0.45488   0.38815   0.00000  Uiso   1.00
Co275  Co    0.34142   0.54512   0.60768   0.00000  Uiso   1.00
Co276  Co    0.67278   0.54512   0.58022   0.00000  Uiso   1.00
Co277  Co    0.67278   0.45488   0.41561   0.00000  Uiso   1.00
Co278  Co    0.34142   0.54512   0.38802   0.00000  Uiso   1.00
Co279  Co    0.34142   0.45488   0.60780   0.00000  Uiso   1.00
Co280  Co    0.35720   0.50000   0.36063   0.00000  Uiso   1.00
Co281  Co    0.35720   0.50000   0.63520   0.00000  Uiso   1.00
Co282  Co    0.67278   0.45488   0.58035   0.00000  Uiso   1.00
Co283  Co    0.67278   0.54512   0.41548   0.00000  Uiso   1.00
Co284  Co    0.64122   0.50000   0.36063   0.00000  Uiso   1.00
Co285  Co    0.64122   0.50000   0.63520   0.00000  Uiso   1.00
Co286  Co    0.45187   0.50000   0.30572   0.00000  Uiso   1.00
Co287  Co    0.45187   0.50000   0.69011   0.00000  Uiso   1.00
Co288  Co    0.54655   0.50000   0.30572   0.00000  Uiso   1.00
Co289  Co    0.54655   0.50000   0.69011   0.00000  Uiso   1.00
Co290  Co    0.48343   0.45488   0.30578   0.00000  Uiso   1.00
Co291  Co    0.48343   0.54512   0.69005   0.00000  Uiso   1.00
Co292  Co    0.48343   0.54512   0.30566   0.00000  Uiso   1.00
Co293  Co    0.48343   0.45488   0.69017   0.00000  Uiso   1.00
Co294  Co    0.40454   0.68047   0.49766   0.00000  Uiso   1.00
Co295  Co    0.40454   0.31953   0.49817   0.00000  Uiso   1.00
Co296  Co    0.45187   0.31953   0.41580   0.00000  Uiso   1.00
Co297  Co    0.45187   0.68047   0.58003   0.00000  Uiso   1.00
Co298  Co    0.59389   0.68047   0.49766   0.00000  Uiso   1.00
Co299  Co    0.59389   0.31953   0.49817   0.00000  Uiso   1.00
Co300  Co    0.54655   0.31953   0.41580   0.00000  Uiso   1.00
Co301  Co    0.54655   0.68047   0.58003   0.00000  Uiso   1.00
Co302  Co    0.45187   0.68047   0.41529   0.00000  Uiso   1.00
Co303  Co    0.45187   0.31953   0.58054   0.00000  Uiso   1.00
Co304  Co    0.54655   0.68047   0.41529   0.00000  Uiso   1.00
Co305  Co    0.54655   0.31953   0.58054   0.00000  Uiso   1.00
Co306  Co    0.34142   0.63535   0.49772   0.00000  Uiso   1.00
Co307  Co    0.34142   0.36465   0.49810   0.00000  Uiso   1.00
Co308  Co    0.57811   0.36465   0.36082   0.00000  Uiso   1.00
Co309  Co    0.57811   0.63535   0.63501   0.00000  Uiso   1.00
Co310  Co    0.57811   0.63535   0.36044   0.00000  Uiso   1.00
Co311  Co    0.57811   0.36465   0.63539   0.00000  Uiso   1.00
Co312  Co    0.30986   0.59023   0.49779   0.00000  Uiso   1.00
Co313  Co    0.30986   0.40977   0.49804   0.00000  Uiso   1.00
Co314  Co    0.68856   0.40977   0.49804   0.00000  Uiso   1.00
Co315  Co    0.68856   0.59023   0.49779   0.00000  Uiso   1.00
Co316  Co    0.40454   0.40977   0.33333   0.00000  Uiso   1.00
Co317  Co    0.40454   0.59023   0.66253   0.00000  Uiso   1.00
Co318  Co    0.59389   0.40977   0.33333   0.00000  Uiso   1.00
Co319  Co    0.59389   0.59023   0.66253   0.00000  Uiso   1.00
Co320  Co    0.40454   0.59023   0.33305   0.00000  Uiso   1.00
Co321  Co    0.40454   0.40977   0.66278   0.00000  Uiso   1.00
Co322  Co    0.59389   0.59023   0.33305   0.00000  Uiso   1.00
Co323  Co    0.59389   0.40977   0.66278   0.00000  Uiso   1.00
Co324  Co    0.40454   0.31953   0.44325   0.00000  Uiso   1.00
Co325  Co    0.40454   0.68047   0.55258   0.00000  Uiso   1.00
Co326  Co    0.59389   0.31953   0.44325   0.00000  Uiso   1.00
Co327  Co    0.59389   0.68047   0.55258   0.00000  Uiso   1.00
Co328  Co    0.40454   0.68047   0.44275   0.00000  Uiso   1.00
Co329  Co    0.40454   0.31953   0.55308   0.00000  Uiso   1.00
Co330  Co    0.49921   0.31953   0.38834   0.00000  Uiso   1.00
Co331  Co    0.49921   0.68047   0.60749   0.00000  Uiso   1.00
Co332  Co    0.59389   0.68047   0.44275   0.00000  Uiso   1.00
Co333  Co    0.59389   0.31953   0.55308   0.00000  Uiso   1.00
Co334  Co    0.49921   0.68047   0.38784   0.00000  Uiso   1.00
Co335  Co    0.49921   0.31953   0.60799   0.00000  Uiso   1.00
Co336  Co    0.29408   0.45488   0.47052   0.00000  Uiso   1.00
Co337  Co    0.29408   0.54512   0.52531   0.00000  Uiso   1.00
Co338  Co    0.29408   0.54512   0.47039   0.00000  Uiso   1.00
Co339  Co    0.29408   0.45488   0.52543   0.00000  Uiso   1.00
Co340  Co    0.62545   0.45488   0.33324   0.00000  Uiso   1.00
Co341  Co    0.62545   0.54512   0.66259   0.00000  Uiso   1.00
Co342  Co    0.62545   0.54512   0.33311   0.00000  Uiso   1.00
Co343  Co    0.62545   0.45488   0.66272   0.00000  Uiso   1.00
Co344  Co    0.57811   0.45488   0.30578   0.00000  Uiso   1.00
Co345  Co    0.57811   0.54512   0.69005   0.00000  Uiso   1.00
Co346  Co    0.57811   0.54512   0.30566   0.00000  Uiso   1.00
Co347  Co    0.57811   0.45488   0.69017   0.00000  Uiso   1.00
Co348  Co    0.34142   0.36465   0.44319   0.00000  Uiso   1.00
Co349  Co    0.34142   0.63535   0.55264   0.00000  Uiso   1.00
Co350  Co    0.34142   0.63535   0.44281   0.00000  Uiso   1.00
Co351  Co    0.34142   0.36465   0.55302   0.00000  Uiso   1.00
Co352  Co    0.62545   0.36465   0.38828   0.00000  Uiso   1.00
Co353  Co    0.62545   0.63535   0.60755   0.00000  Uiso   1.00
Co354  Co    0.62545   0.63535   0.38790   0.00000  Uiso   1.00
Co355  Co    0.62545   0.36465   0.60793   0.00000  Uiso   1.00
Co356  Co    0.53077   0.63535   0.66246   0.00000  Uiso   1.00
Co357  Co    0.53077   0.36465   0.33333   0.00000  Uiso   1.00
Co358  Co    0.53077   0.63535   0.33299   0.00000  Uiso   1.00
Co359  Co    0.53077   0.36465   0.66284   0.00000  Uiso   1.00
Co360  Co    0.30986   0.40977   0.44313   0.00000  Uiso   1.00
Co361  Co    0.30986   0.59023   0.55270   0.00000  Uiso   1.00
Co362  Co    0.30986   0.59023   0.44287   0.00000  Uiso   1.00
Co363  Co    0.30986   0.40977   0.55295   0.00000  Uiso   1.00
Co364  Co    0.68856   0.59023   0.55270   0.00000  Uiso   1.00
Co365  Co    0.68856   0.40977   0.44313   0.00000  Uiso   1.00
Co366  Co    0.68856   0.40977   0.55295   0.00000  Uiso   1.00
Co367  Co    0.68856   0.59023   0.44287   0.00000  Uiso   1.00
Co368  Co    0.35720   0.40977   0.36076   0.00000  Uiso   1.00
Co369  Co    0.35720   0.59023   0.63507   0.00000  Uiso   1.00
Co370  Co    0.64122   0.40977   0.36076   0.00000  Uiso   1.00
Co371  Co    0.64122   0.59023   0.63507   0.00000  Uiso   1.00
Co372  Co    0.35720   0.59023   0.36051   0.00000  Uiso   1.00
Co373  Co    0.35720   0.40977   0.63532   0.00000  Uiso   1.00
Co374  Co    0.64122   0.59023   0.36051   0.00000  Uiso   1.00
Co375  Co    0.64122   0.40977   0.63532   0.00000  Uiso   1.00
Co376  Co    0.45187   0.40977   0.30584   0.00000  Uiso   1.00
Co377  Co    0.45187   0.59023   0.68998   0.00000  Uiso   1.00
Co378  Co    0.54655   0.40977   0.30584   0.00000  Uiso   1.00
Co379  Co    0.54655   0.59023   0.68998   0.00000  Uiso   1.00
Co380  Co    0.45187   0.59023   0.30559   0.00000  Uiso   1.00
Co381  Co    0.45187   0.40977   0.69024   0.00000  Uiso   1.00
Co382  Co    0.54655   0.59023   0.30559   0.00000  Uiso   1.00
Co383  Co    0.54655   0.40977   0.69024   0.00000  Uiso   1.00
Co384  Co    0.30986   0.50000   0.38809   0.00000  Uiso   1.00
Co385  Co    0.30986   0.50000   0.60774   0.00000  Uiso   1.00
Co386  Co    0.68856   0.50000   0.60774   0.00000  Uiso   1.00
Co387  Co    0.68856   0.50000   0.38809   0.00000  Uiso   1.00
Co388  Co    0.49921   0.50000   0.27826   0.00000  Uiso   1.00
Co389  Co    0.49921   0.50000   0.71757   0.00000  Uiso   1.00
Co390  Co    0.67278   0.63535   0.52518   0.00000  Uiso   1.00
Co391  Co    0.67278   0.36465   0.47065   0.00000  Uiso   1.00
Co392  Co    0.67278   0.36465   0.52556   0.00000  Uiso   1.00
Co393  Co    0.67278   0.63535   0.47027   0.00000  Uiso   1.00
Co394  Co    0.38876   0.36465   0.36082   0.00000  Uiso   1.00
Co395  Co    0.38876   0.63535   0.63501   0.00000  Uiso   1.00
Co396  Co    0.43610   0.63535   0.66246   0.00000  Uiso   1.00
Co397  Co    0.43610   0.36465   0.33333   0.00000  Uiso   1.00
Co398  Co    0.38876   0.63535   0.36044   0.00000  Uiso   1.00
Co399  Co    0.38876   0.36465   0.63539   0.00000  Uiso   1.00
Co400  Co    0.43610   0.63535   0.33299   0.00000  Uiso   1.00
Co401  Co    0.43610   0.36465   0.66284   0.00000  Uiso   1.00
Co402  Co    0.29408   0.45488   0.41561   0.00000  Uiso   1.00
Co403  Co    0.29408   0.54512   0.58022   0.00000  Uiso   1.00
Co404  Co    0.29408   0.54512   0.41548   0.00000  Uiso   1.00
Co405  Co    0.29408   0.45488   0.58035   0.00000  Uiso   1.00
Co406  Co    0.72012   0.45488   0.49798   0.00000  Uiso   1.00
Co407  Co    0.72012   0.54512   0.49785   0.00000  Uiso   1.00
Co408  Co    0.67278   0.54512   0.63513   0.00000  Uiso   1.00
Co409  Co    0.67278   0.45488   0.36069   0.00000  Uiso   1.00
Co410  Co    0.67278   0.45488   0.63526   0.00000  Uiso   1.00
Co411  Co    0.67278   0.54512   0.36057   0.00000  Uiso   1.00
Co412  Co    0.38876   0.45488   0.30578   0.00000  Uiso   1.00
Co413  Co    0.38876   0.54512   0.69005   0.00000  Uiso   1.00
Co414  Co    0.38876   0.54512   0.30566   0.00000  Uiso   1.00
Co415  Co    0.38876   0.45488   0.69017   0.00000  Uiso   1.00
Co416  Co    0.53077   0.45488   0.27832   0.00000  Uiso   1.00
Co417  Co    0.53077   0.54512   0.71750   0.00000  Uiso   1.00
Co418  Co    0.53077   0.54512   0.27820   0.00000  Uiso   1.00
Co419  Co    0.53077   0.45488   0.71763   0.00000  Uiso   1.00
Co420  Co    0.48343   0.27442   0.47077   0.00000  Uiso   1.00
Co421  Co    0.48343   0.72558   0.52506   0.00000  Uiso   1.00
Co422  Co    0.53077   0.72558   0.49760   0.00000  Uiso   1.00
Co423  Co    0.53077   0.27442   0.49823   0.00000  Uiso   1.00
Co424  Co    0.48343   0.72558   0.47014   0.00000  Uiso   1.00
Co425  Co    0.48343   0.27442   0.52569   0.00000  Uiso   1.00
Co426  Co    0.35720   0.31953   0.47071   0.00000  Uiso   1.00
Co427  Co    0.35720   0.68047   0.52512   0.00000  Uiso   1.00
Co428  Co    0.35720   0.68047   0.47021   0.00000  Uiso   1.00
Co429  Co    0.35720   0.31953   0.52562   0.00000  Uiso   1.00
Co430  Co    0.64122   0.31953   0.47071   0.00000  Uiso   1.00
Co431  Co    0.64122   0.68047   0.52512   0.00000  Uiso   1.00
Co432  Co    0.40454   0.31953   0.38834   0.00000  Uiso   1.00
Co433  Co    0.40454   0.68047   0.60749   0.00000  Uiso   1.00
Co434  Co    0.64122   0.68047   0.47021   0.00000  Uiso   1.00
Co435  Co    0.64122   0.31953   0.52562   0.00000  Uiso   1.00
Co436  Co    0.59389   0.31953   0.38834   0.00000  Uiso   1.00
Co437  Co    0.59389   0.68047   0.60749   0.00000  Uiso   1.00
Co438  Co    0.45187   0.31953   0.36088   0.00000  Uiso   1.00
Co439  Co    0.45187   0.68047   0.63494   0.00000  Uiso   1.00
Co440  Co    0.54655   0.31953   0.36088   0.00000  Uiso   1.00
Co441  Co    0.54655   0.68047   0.63494   0.00000  Uiso   1.00
Co442  Co    0.40454   0.68047   0.38784   0.00000  Uiso   1.00
Co443  Co    0.40454   0.31953   0.60799   0.00000  Uiso   1.00
Co444  Co    0.59389   0.68047   0.38784   0.00000  Uiso   1.00
Co445  Co    0.59389   0.31953   0.60799   0.00000  Uiso   1.00
Co446  Co    0.45187   0.68047   0.36038   0.00000  Uiso   1.00
Co447  Co    0.45187   0.31953   0.63545   0.00000  Uiso   1.00
Co448  Co    0.54655   0.68047   0.36038   0.00000  Uiso   1.00
Co449  Co    0.54655   0.31953   0.63545   0.00000  Uiso   1.00
Co450  Co    0.72012   0.54512   0.55276   0.00000  Uiso   1.00
Co451  Co    0.72012   0.45488   0.44306   0.00000  Uiso   1.00
Co452  Co    0.72012   0.45488   0.55289   0.00000  Uiso   1.00
Co453  Co    0.72012   0.54512   0.44294   0.00000  Uiso   1.00
Co454  Co    0.34142   0.45488   0.33324   0.00000  Uiso   1.00
Co455  Co    0.34142   0.54512   0.66259   0.00000  Uiso   1.00
Co456  Co    0.34142   0.54512   0.33311   0.00000  Uiso   1.00
Co457  Co    0.34142   0.45488   0.66272   0.00000  Uiso   1.00
Co458  Co    0.43610   0.45488   0.27832   0.00000  Uiso   1.00
Co459  Co    0.43610   0.54512   0.71750   0.00000  Uiso   1.00
Co460  Co    0.43610   0.54512   0.27820   0.00000  Uiso   1.00
Co461  Co    0.43610   0.45488   0.71763   0.00000  Uiso   1.00
Co462  Co    0.43610   0.72558   0.49760   0.00000  Uiso   1.00
Co463  Co    0.43610   0.27442   0.49823   0.00000  Uiso   1.00
Co464  Co    0.53077   0.27442   0.44332   0.00000  Uiso   1.00
Co465  Co    0.53077   0.72558   0.55251   0.00000  Uiso   1.00
Co466  Co    0.53077   0.72558   0.44269   0.00000  Uiso   1.00
Co467  Co    0.53077   0.27442   0.55314   0.00000  Uiso   1.00
Co468  Co    0.34142   0.36465   0.38828   0.00000  Uiso   1.00
Co469  Co    0.34142   0.63535   0.60755   0.00000  Uiso   1.00
Co470  Co    0.67278   0.63535   0.58009   0.00000  Uiso   1.00
Co471  Co    0.67278   0.36465   0.41573   0.00000  Uiso   1.00
Co472  Co    0.34142   0.63535   0.38790   0.00000  Uiso   1.00
Co473  Co    0.34142   0.36465   0.60793   0.00000  Uiso   1.00
Co474  Co    0.67278   0.36465   0.58047   0.00000  Uiso   1.00
Co475  Co    0.67278   0.63535   0.41536   0.00000  Uiso   1.00
Co476  Co    0.48343   0.36465   0.30591   0.00000  Uiso   1.00
Co477  Co    0.48343   0.63535   0.68992   0.00000  Uiso   1.00
Co478  Co    0.48343   0.63535   0.30553   0.00000  Uiso   1.00
Co479  Co    0.48343   0.36465   0.69030   0.00000  Uiso   1.00
Co480  Co    0.30986   0.40977   0.38821   0.00000  Uiso   1.00
Co481  Co    0.30986   0.59023   0.60761   0.00000  Uiso   1.00
Co482  Co    0.30986   0.59023   0.38796   0.00000  Uiso   1.00
Co483  Co    0.30986   0.40977   0.60787   0.00000  Uiso   1.00
Co484  Co    0.68856   0.59023   0.60761   0.00000  Uiso   1.00
Co485  Co    0.68856   0.40977   0.38821   0.00000  Uiso   1.00
Co486  Co    0.68856   0.40977   0.60787   0.00000  Uiso   1.00
Co487  Co    0.68856   0.59023   0.38796   0.00000  Uiso   1.00
Co488  Co    0.49921   0.40977   0.27839   0.00000  Uiso   1.00
Co489  Co    0.49921   0.59023   0.71744   0.00000  Uiso   1.00
Co490  Co    0.49921   0.59023   0.27814   0.00000  Uiso   1.00
Co491  Co    0.49921   0.40977   0.71769   0.00000  Uiso   1.00
Co492  Co    0.26252   0.50000   0.47046   0.00000  Uiso   1.00
Co493  Co    0.26252   0.50000   0.52537   0.00000  Uiso   1.00
Co494  Co    0.73590   0.50000   0.52537   0.00000  Uiso   1.00
Co495  Co    0.73590   0.50000   0.47046   0.00000  Uiso   1.00
Co496  Co    0.35720   0.50000   0.30572   0.00000  Uiso   1.00
Co497  Co    0.35720   0.50000   0.69011   0.00000  Uiso   1.00
Co498  Co    0.64122   0.50000   0.30572   0.00000  Uiso   1.00
Co499  Co    0.64122   0.50000   0.69011   0.00000  Uiso   1.00
Co500  Co    0.40454   0.50000   0.27826   0.00000  Uiso   1.00
Co501  Co    0.40454   0.50000   0.71757   0.00000  Uiso   1.00
Co502  Co    0.59389   0.50000   0.27826   0.00000  Uiso   1.00
Co503  Co    0.59389   0.50000   0.71757   0.00000  Uiso   1.00
Co504  Co    0.43610   0.27442   0.44332   0.00000  Uiso   1.00
Co505  Co    0.43610   0.72558   0.55251   0.00000  Uiso   1.00
Co506  Co    0.57811   0.27442   0.47077   0.00000  Uiso   1.00
Co507  Co    0.57811   0.72558   0.52506   0.00000  Uiso   1.00
Co508  Co    0.48343   0.27442   0.41586   0.00000  Uiso   1.00
Co509  Co    0.48343   0.72558   0.57997   0.00000  Uiso   1.00
Co510  Co    0.57811   0.72558   0.47014   0.00000  Uiso   1.00
Co511  Co    0.57811   0.27442   0.52569   0.00000  Uiso   1.00
Co512  Co    0.43610   0.72558   0.44269   0.00000  Uiso   1.00
Co513  Co    0.43610   0.27442   0.55314   0.00000  Uiso   1.00
Co514  Co    0.48343   0.72558   0.41523   0.00000  Uiso   1.00
Co515  Co    0.48343   0.27442   0.58060   0.00000  Uiso   1.00
Co516  Co    0.35720   0.31953   0.41580   0.00000  Uiso   1.00
Co517  Co    0.35720   0.68047   0.58003   0.00000  Uiso   1.00
Co518  Co    0.64122   0.31953   0.41580   0.00000  Uiso   1.00
Co519  Co    0.64122   0.68047   0.58003   0.00000  Uiso   1.00
Co520  Co    0.35720   0.68047   0.41529   0.00000  Uiso   1.00
Co521  Co    0.35720   0.31953   0.58054   0.00000  Uiso   1.00
Co522  Co    0.64122   0.68047   0.41529   0.00000  Uiso   1.00
Co523  Co    0.64122   0.31953   0.58054   0.00000  Uiso   1.00
Co524  Co    0.49921   0.31953   0.33343   0.00000  Uiso   1.00
Co525  Co    0.49921   0.68047   0.66240   0.00000  Uiso   1.00
Co526  Co    0.49921   0.68047   0.33292   0.00000  Uiso   1.00
Co527  Co    0.49921   0.31953   0.66291   0.00000  Uiso   1.00
Co528  Co    0.29408   0.36465   0.47065   0.00000  Uiso   1.00
Co529  Co    0.29408   0.63535   0.52518   0.00000  Uiso   1.00
Co530  Co    0.29408   0.63535   0.47027   0.00000  Uiso   1.00
Co531  Co    0.29408   0.36465   0.52556   0.00000  Uiso   1.00
Co532  Co    0.62545   0.63535   0.66246   0.00000  Uiso   1.00
Co533  Co    0.62545   0.36465   0.33333   0.00000  Uiso   1.00
Co534  Co    0.57811   0.36465   0.30591   0.00000  Uiso   1.00
Co535  Co    0.57811   0.63535   0.68992   0.00000  Uiso   1.00
Co536  Co    0.62545   0.63535   0.33299   0.00000  Uiso   1.00
Co537  Co    0.62545   0.36465   0.66284   0.00000  Uiso   1.00
Co538  Co    0.57811   0.63535   0.30553   0.00000  Uiso   1.00
Co539  Co    0.57811   0.36465   0.69030   0.00000  Uiso   1.00
Co540  Co    0.26252   0.50000   0.41554   0.00000  Uiso   1.00
Co541  Co    0.26252   0.50000   0.58028   0.00000  Uiso   1.00
Co542  Co    0.73590   0.50000   0.58028   0.00000  Uiso   1.00
Co543  Co    0.73590   0.50000   0.41554   0.00000  Uiso   1.00
Co544  Co    0.29408   0.45488   0.36069   0.00000  Uiso   1.00
Co545  Co    0.29408   0.54512   0.63513   0.00000  Uiso   1.00
Co546  Co    0.72012   0.54512   0.60768   0.00000  Uiso   1.00
Co547  Co    0.72012   0.45488   0.38815   0.00000  Uiso   1.00
Co548  Co    0.29408   0.54512   0.36057   0.00000  Uiso   1.00
Co549  Co    0.29408   0.45488   0.63526   0.00000  Uiso   1.00
Co550  Co    0.72012   0.45488   0.60780   0.00000  Uiso   1.00
Co551  Co    0.72012   0.54512   0.38802   0.00000  Uiso   1.00
Co552  Co    0.30986   0.50000   0.33317   0.00000  Uiso   1.00
Co553  Co    0.30986   0.50000   0.66265   0.00000  Uiso   1.00
Co554  Co    0.68856   0.50000   0.66265   0.00000  Uiso   1.00
Co555  Co    0.68856   0.50000   0.33317   0.00000  Uiso   1.00
Co556  Co    0.45187   0.50000   0.25081   0.00000  Uiso   1.00
Co557  Co    0.45187   0.50000   0.74502   0.00000  Uiso   1.00
Co558  Co    0.54655   0.50000   0.25081   0.00000  Uiso   1.00
Co559  Co    0.54655   0.50000   0.74502   0.00000  Uiso   1.00
Co560  Co    0.48343   0.45488   0.25087   0.00000  Uiso   1.00
Co561  Co    0.48343   0.54512   0.74496   0.00000  Uiso   1.00
Co562  Co    0.48343   0.54512   0.25074   0.00000  Uiso   1.00
Co563  Co    0.48343   0.45488   0.74509   0.00000  Uiso   1.00
Co564  Co    0.38876   0.27442   0.47077   0.00000  Uiso   1.00
Co565  Co    0.38876   0.72558   0.52506   0.00000  Uiso   1.00
Co566  Co    0.38876   0.72558   0.47014   0.00000  Uiso   1.00
Co567  Co    0.38876   0.27442   0.52569   0.00000  Uiso   1.00
Co568  Co    0.57811   0.27442   0.41586   0.00000  Uiso   1.00
Co569  Co    0.57811   0.72558   0.57997   0.00000  Uiso   1.00
Co570  Co    0.53077   0.27442   0.38840   0.00000  Uiso   1.00
Co571  Co    0.53077   0.72558   0.60743   0.00000  Uiso   1.00
Co572  Co    0.57811   0.72558   0.41523   0.00000  Uiso   1.00
Co573  Co    0.57811   0.27442   0.58060   0.00000  Uiso   1.00
Co574  Co    0.53077   0.72558   0.38777   0.00000  Uiso   1.00
Co575  Co    0.53077   0.27442   0.60806   0.00000  Uiso   1.00
Co576  Co    0.26252   0.40977   0.47058   0.00000  Uiso   1.00
Co577  Co    0.26252   0.59023   0.52524   0.00000  Uiso   1.00
Co578  Co    0.26252   0.59023   0.47033   0.00000  Uiso   1.00
Co579  Co    0.26252   0.40977   0.52550   0.00000  Uiso   1.00
Co580  Co    0.73590   0.59023   0.52524   0.00000  Uiso   1.00
Co581  Co    0.73590   0.40977   0.47058   0.00000  Uiso   1.00
Co582  Co    0.73590   0.40977   0.52550   0.00000  Uiso   1.00
Co583  Co    0.73590   0.59023   0.47033   0.00000  Uiso   1.00
Co584  Co    0.35720   0.40977   0.30584   0.00000  Uiso   1.00
Co585  Co    0.35720   0.59023   0.68998   0.00000  Uiso   1.00
Co586  Co    0.64122   0.40977   0.30584   0.00000  Uiso   1.00
Co587  Co    0.64122   0.59023   0.68998   0.00000  Uiso   1.00
Co588  Co    0.35720   0.59023   0.30559   0.00000  Uiso   1.00
Co589  Co    0.35720   0.40977   0.69024   0.00000  Uiso   1.00
Co590  Co    0.40454   0.40977   0.27839   0.00000  Uiso   1.00
Co591  Co    0.40454   0.59023   0.71744   0.00000  Uiso   1.00
Co592  Co    0.59389   0.40977   0.27839   0.00000  Uiso   1.00
Co593  Co    0.59389   0.59023   0.71744   0.00000  Uiso   1.00
Co594  Co    0.64122   0.59023   0.30559   0.00000  Uiso   1.00
Co595  Co    0.64122   0.40977   0.69024   0.00000  Uiso   1.00
Co596  Co    0.40454   0.59023   0.27814   0.00000  Uiso   1.00
Co597  Co    0.40454   0.40977   0.71769   0.00000  Uiso   1.00
Co598  Co    0.59389   0.59023   0.27814   0.00000  Uiso   1.00
Co599  Co    0.59389   0.40977   0.71769   0.00000  Uiso   1.00
Co600  Co    0.24675   0.54512   0.49785   0.00000  Uiso   1.00
Co601  Co    0.24675   0.45488   0.49798   0.00000  Uiso   1.00
Co602  Co    0.62545   0.45488   0.27832   0.00000  Uiso   1.00
Co603  Co    0.62545   0.54512   0.71750   0.00000  Uiso   1.00
Co604  Co    0.62545   0.54512   0.27820   0.00000  Uiso   1.00
Co605  Co    0.62545   0.45488   0.71763   0.00000  Uiso   1.00
Co606  Co    0.62545   0.72558   0.49760   0.00000  Uiso   1.00
Co607  Co    0.62545   0.27442   0.49823   0.00000  Uiso   1.00
Co608  Co    0.43610   0.27442   0.38840   0.00000  Uiso   1.00
Co609  Co    0.43610   0.72558   0.60743   0.00000  Uiso   1.00
Co610  Co    0.43610   0.72558   0.38777   0.00000  Uiso   1.00
Co611  Co    0.43610   0.27442   0.60806   0.00000  Uiso   1.00
Co612  Co    0.29408   0.36465   0.41573   0.00000  Uiso   1.00
Co613  Co    0.29408   0.63535   0.58009   0.00000  Uiso   1.00
Co614  Co    0.72012   0.36465   0.49810   0.00000  Uiso   1.00
Co615  Co    0.72012   0.63535   0.49772   0.00000  Uiso   1.00
Co616  Co    0.29408   0.63535   0.41536   0.00000  Uiso   1.00
Co617  Co    0.29408   0.36465   0.58047   0.00000  Uiso   1.00
Co618  Co    0.67278   0.63535   0.63501   0.00000  Uiso   1.00
Co619  Co    0.67278   0.36465   0.36082   0.00000  Uiso   1.00
Co620  Co    0.38876   0.36465   0.30591   0.00000  Uiso   1.00
Co621  Co    0.38876   0.63535   0.68992   0.00000  Uiso   1.00
Co622  Co    0.67278   0.63535   0.36044   0.00000  Uiso   1.00
Co623  Co    0.67278   0.36465   0.63539   0.00000  Uiso   1.00
Co624  Co    0.53077   0.36465   0.27845   0.00000  Uiso   1.00
Co625  Co    0.53077   0.63535   0.71738   0.00000  Uiso   1.00
Co626  Co    0.38876   0.63535   0.30553   0.00000  Uiso   1.00
Co627  Co    0.38876   0.36465   0.69030   0.00000  Uiso   1.00
Co628  Co    0.53077   0.63535   0.27807   0.00000  Uiso   1.00
Co629  Co    0.53077   0.36465   0.71776   0.00000  Uiso   1.00
Co630  Co    0.30986   0.68047   0.49766   0.00000  Uiso   1.00
Co631  Co    0.30986   0.31953   0.49817   0.00000  Uiso   1.00
Co632  Co    0.68856   0.31953   0.49817   0.00000  Uiso   1.00
Co633  Co    0.68856   0.68047   0.49766   0.00000  Uiso   1.00
Co634  Co    0.40454   0.31953   0.33343   0.00000  Uiso   1.00
Co635  Co    0.40454   0.68047   0.66240   0.00000  Uiso   1.00
Co636  Co    0.59389   0.31953   0.33343   0.00000  Uiso   1.00
Co637  Co    0.59389   0.68047   0.66240   0.00000  Uiso   1.00
Co638  Co    0.24675   0.45488   0.44306   0.00000  Uiso   1.00
Co639  Co    0.24675   0.54512   0.55276   0.00000  Uiso   1.00
Co640  Co    0.40454   0.68047   0.33292   0.00000  Uiso   1.00
Co641  Co    0.40454   0.31953   0.66291   0.00000  Uiso   1.00
Co642  Co    0.24675   0.54512   0.44294   0.00000  Uiso   1.00
Co643  Co    0.24675   0.45488   0.55289   0.00000  Uiso   1.00
Co644  Co    0.59389   0.68047   0.33292   0.00000  Uiso   1.00
Co645  Co    0.59389   0.31953   0.66291   0.00000  Uiso   1.00
Co646  Co    0.67278   0.45488   0.30578   0.00000  Uiso   1.00
Co647  Co    0.67278   0.54512   0.69005   0.00000  Uiso   1.00
Co648  Co    0.67278   0.54512   0.30566   0.00000  Uiso   1.00
Co649  Co    0.67278   0.45488   0.69017   0.00000  Uiso   1.00
Co650  Co    0.57811   0.45488   0.25087   0.00000  Uiso   1.00
Co651  Co    0.57811   0.54512   0.74496   0.00000  Uiso   1.00
Co652  Co    0.57811   0.54512   0.25074   0.00000  Uiso   1.00
Co653  Co    0.57811   0.45488   0.74509   0.00000  Uiso   1.00
Co654  Co    0.38876   0.27442   0.41586   0.00000  Uiso   1.00
Co655  Co    0.38876   0.72558   0.57997   0.00000  Uiso   1.00
Co656  Co    0.62545   0.27442   0.44332   0.00000  Uiso   1.00
Co657  Co    0.62545   0.72558   0.55251   0.00000  Uiso   1.00
Co658  Co    0.48343   0.27442   0.36095   0.00000  Uiso   1.00
Co659  Co    0.48343   0.72558   0.63488   0.00000  Uiso   1.00
Co660  Co    0.62545   0.72558   0.44269   0.00000  Uiso   1.00
Co661  Co    0.62545   0.27442   0.55314   0.00000  Uiso   1.00
Co662  Co    0.38876   0.72558   0.41523   0.00000  Uiso   1.00
Co663  Co    0.38876   0.27442   0.58060   0.00000  Uiso   1.00
Co664  Co    0.48343   0.72558   0.36032   0.00000  Uiso   1.00
Co665  Co    0.48343   0.27442   0.63551   0.00000  Uiso   1.00
Co666  Co    0.72012   0.63535   0.55264   0.00000  Uiso   1.00
Co667  Co    0.72012   0.36465   0.44319   0.00000  Uiso   1.00
Co668  Co    0.72012   0.36465   0.55302   0.00000  Uiso   1.00
Co669  Co    0.72012   0.63535   0.44281   0.00000  Uiso   1.00
Co670  Co    0.34142   0.63535   0.66246   0.00000  Uiso   1.00
Co671  Co    0.34142   0.36465   0.33333   0.00000  Uiso   1.00
Co672  Co    0.34142   0.63535   0.33299   0.00000  Uiso   1.00
Co673  Co    0.34142   0.36465   0.66284   0.00000  Uiso   1.00
Co674  Co    0.43610   0.36465   0.27845   0.00000  Uiso   1.00
Co675  Co    0.43610   0.63535   0.71738   0.00000  Uiso   1.00
Co676  Co    0.43610   0.63535   0.27807   0.00000  Uiso   1.00
Co677  Co    0.43610   0.36465   0.71776   0.00000  Uiso   1.00
Co678  Co    0.26252   0.40977   0.41567   0.00000  Uiso   1.00
Co679  Co    0.26252   0.59023   0.58016   0.00000  Uiso   1.00
Co680  Co    0.26252   0.59023   0.41542   0.00000  Uiso   1.00
Co681  Co    0.26252   0.40977   0.58041   0.00000  Uiso   1.00
Co682  Co    0.73590   0.59023   0.58016   0.00000  Uiso   1.00
Co683  Co    0.73590   0.40977   0.41567   0.00000  Uiso   1.00
Co684  Co    0.73590   0.40977   0.58041   0.00000  Uiso   1.00
Co685  Co    0.73590   0.59023   0.41542   0.00000  Uiso   1.00
Co686  Co    0.30986   0.40977   0.33333   0.00000  Uiso   1.00
Co687  Co    0.30986   0.59023   0.66253   0.00000  Uiso   1.00
Co688  Co    0.68856   0.40977   0.33333   0.00000  Uiso   1.00
Co689  Co    0.68856   0.59023   0.66253   0.00000  Uiso   1.00
Co690  Co    0.30986   0.59023   0.33305   0.00000  Uiso   1.00
Co691  Co    0.30986   0.40977   0.66278   0.00000  Uiso   1.00
Co692  Co    0.68856   0.40977   0.66278   0.00000  Uiso   1.00
Co693  Co    0.68856   0.59023   0.33305   0.00000  Uiso   1.00
Co694  Co    0.30986   0.31953   0.44325   0.00000  Uiso   1.00
Co695  Co    0.30986   0.68047   0.55258   0.00000  Uiso   1.00
Co696  Co    0.45187   0.40977   0.25093   0.00000  Uiso   1.00
Co697  Co    0.45187   0.59023   0.74490   0.00000  Uiso   1.00
Co698  Co    0.54655   0.40977   0.25093   0.00000  Uiso   1.00
Co699  Co    0.54655   0.59023   0.74490   0.00000  Uiso   1.00
Co700  Co    0.30986   0.68047   0.44275   0.00000  Uiso   1.00
Co701  Co    0.30986   0.31953   0.55308   0.00000  Uiso   1.00
Co702  Co    0.68856   0.68047   0.55258   0.00000  Uiso   1.00
Co703  Co    0.68856   0.31953   0.44325   0.00000  Uiso   1.00
Co704  Co    0.35720   0.31953   0.36088   0.00000  Uiso   1.00
Co705  Co    0.35720   0.68047   0.63494   0.00000  Uiso   1.00
Co706  Co    0.45187   0.59023   0.25068   0.00000  Uiso   1.00
Co707  Co    0.45187   0.40977   0.74515   0.00000  Uiso   1.00
Co708  Co    0.68856   0.31953   0.55308   0.00000  Uiso   1.00
Co709  Co    0.68856   0.68047   0.44275   0.00000  Uiso   1.00
Co710  Co    0.54655   0.59023   0.25068   0.00000  Uiso   1.00
Co711  Co    0.54655   0.40977   0.74515   0.00000  Uiso   1.00
Co712  Co    0.64122   0.31953   0.36088   0.00000  Uiso   1.00
Co713  Co    0.64122   0.68047   0.63494   0.00000  Uiso   1.00
Co714  Co    0.35720   0.68047   0.36038   0.00000  Uiso   1.00
Co715  Co    0.35720   0.31953   0.63545   0.00000  Uiso   1.00
Co716  Co    0.45187   0.31953   0.30597   0.00000  Uiso   1.00
Co717  Co    0.45187   0.68047   0.68986   0.00000  Uiso   1.00
Co718  Co    0.54655   0.31953   0.30597   0.00000  Uiso   1.00
Co719  Co    0.54655   0.68047   0.68986   0.00000  Uiso   1.00
Co720  Co    0.64122   0.68047   0.36038   0.00000  Uiso   1.00
Co721  Co    0.64122   0.31953   0.63545   0.00000  Uiso   1.00
Co722  Co    0.45187   0.68047   0.30547   0.00000  Uiso   1.00
Co723  Co    0.45187   0.31953   0.69036   0.00000  Uiso   1.00
Co724  Co    0.54655   0.68047   0.30547   0.00000  Uiso   1.00
Co725  Co    0.54655   0.31953   0.69036   0.00000  Uiso   1.00
Co726  Co    0.49921   0.77070   0.49754   0.00000  Uiso   1.00
Co727  Co    0.49921   0.22930   0.49829   0.00000  Uiso   1.00
Co728  Co    0.76746   0.54512   0.52531   0.00000  Uiso   1.00
Co729  Co    0.76746   0.45488   0.47052   0.00000  Uiso   1.00
Co730  Co    0.76746   0.45488   0.52543   0.00000  Uiso   1.00
Co731  Co    0.76746   0.54512   0.47039   0.00000  Uiso   1.00
Co732  Co    0.26252   0.50000   0.36063   0.00000  Uiso   1.00
Co733  Co    0.26252   0.50000   0.63520   0.00000  Uiso   1.00
Co734  Co    0.73590   0.50000   0.63520   0.00000  Uiso   1.00
Co735  Co    0.73590   0.50000   0.36063   0.00000  Uiso   1.00
Co736  Co    0.34142   0.45488   0.27832   0.00000  Uiso   1.00
Co737  Co    0.34142   0.54512   0.71750   0.00000  Uiso   1.00
Co738  Co    0.34142   0.54512   0.27820   0.00000  Uiso   1.00
Co739  Co    0.34142   0.45488   0.71763   0.00000  Uiso   1.00
Co740  Co    0.38876   0.45488   0.25087   0.00000  Uiso   1.00
Co741  Co    0.38876   0.54512   0.74496   0.00000  Uiso   1.00
Co742  Co    0.38876   0.54512   0.25074   0.00000  Uiso   1.00
Co743  Co    0.38876   0.45488   0.74509   0.00000  Uiso   1.00
Co744  Co    0.49921   0.50000   0.22335   0.00000  Uiso   1.00
Co745  Co    0.49921   0.50000   0.77248   0.00000  Uiso   1.00
Co746  Co    0.34142   0.72558   0.49760   0.00000  Uiso   1.00
Co747  Co    0.34142   0.27442   0.49823   0.00000  Uiso   1.00
Co748  Co    0.57811   0.27442   0.36095   0.00000  Uiso   1.00
Co749  Co    0.57811   0.72558   0.63488   0.00000  Uiso   1.00
Co750  Co    0.57811   0.72558   0.36032   0.00000  Uiso   1.00
Co751  Co    0.57811   0.27442   0.63551   0.00000  Uiso   1.00
Co752  Co    0.45187   0.22930   0.47084   0.00000  Uiso   1.00
Co753  Co    0.45187   0.77070   0.52499   0.00000  Uiso   1.00
Co754  Co    0.49921   0.22930   0.44338   0.00000  Uiso   1.00
Co755  Co    0.49921   0.77070   0.55245   0.00000  Uiso   1.00
Co756  Co    0.54655   0.22930   0.47084   0.00000  Uiso   1.00
Co757  Co    0.54655   0.77070   0.52499   0.00000  Uiso   1.00
Co758  Co    0.45187   0.77070   0.47008   0.00000  Uiso   1.00
Co759  Co    0.45187   0.22930   0.52575   0.00000  Uiso   1.00
Co760  Co    0.54655   0.77070   0.47008   0.00000  Uiso   1.00
Co761  Co    0.54655   0.22930   0.52575   0.00000  Uiso   1.00
Co762  Co    0.49921   0.77070   0.44262   0.00000  Uiso   1.00
Co763  Co    0.49921   0.22930   0.55321   0.00000  Uiso   1.00
Co764  Co    0.24675   0.45488   0.38815   0.00000  Uiso   1.00
Co765  Co    0.24675   0.54512   0.60768   0.00000  Uiso   1.00
Co766  Co    0.24675   0.54512   0.38802   0.00000  Uiso   1.00
Co767  Co    0.24675   0.45488   0.60780   0.00000  Uiso   1.00
Co768  Co    0.72012   0.54512   0.66259   0.00000  Uiso   1.00
Co769  Co    0.72012   0.45488   0.33324   0.00000  Uiso   1.00
Co770  Co    0.72012   0.45488   0.66272   0.00000  Uiso   1.00
Co771  Co    0.72012   0.54512   0.33311   0.00000  Uiso   1.00
Co772  Co    0.53077   0.45488   0.22341   0.00000  Uiso   1.00
Co773  Co    0.53077   0.54512   0.77242   0.00000  Uiso   1.00
Co774  Co    0.53077   0.54512   0.22329   0.00000  Uiso   1.00
Co775  Co    0.53077   0.45488   0.77254   0.00000  Uiso   1.00
Co776  Co    0.34142   0.27442   0.44332   0.00000  Uiso   1.00
Co777  Co    0.34142   0.72558   0.55251   0.00000  Uiso   1.00
Co778  Co    0.34142   0.72558   0.44269   0.00000  Uiso   1.00
Co779  Co    0.34142   0.27442   0.55314   0.00000  Uiso   1.00
Co780  Co    0.62545   0.27442   0.38840   0.00000  Uiso   1.00
Co781  Co    0.62545   0.72558   0.60743   0.00000  Uiso   1.00
Co782  Co    0.53077   0.27442   0.33349   0.00000  Uiso   1.00
Co783  Co    0.53077   0.72558   0.66234   0.00000  Uiso   1.00
Co784  Co    0.62545   0.72558   0.38777   0.00000  Uiso   1.00
Co785  Co    0.62545   0.27442   0.60806   0.00000  Uiso   1.00
Co786  Co    0.53077   0.72558   0.33286   0.00000  Uiso   1.00
Co787  Co    0.53077   0.27442   0.66297   0.00000  Uiso   1.00
Co788  Co    0.29408   0.36465   0.36082   0.00000  Uiso   1.00
Co789  Co    0.29408   0.63535   0.63501   0.00000  Uiso   1.00
Co790  Co    0.72012   0.63535   0.60755   0.00000  Uiso   1.00
Co791  Co    0.72012   0.36465   0.38828   0.00000  Uiso   1.00
Co792  Co    0.29408   0.63535   0.36044   0.00000  Uiso   1.00
Co793  Co    0.29408   0.36465   0.63539   0.00000  Uiso   1.00
Co794  Co    0.72012   0.36465   0.60793   0.00000  Uiso   1.00
Co795  Co    0.72012   0.63535   0.38790   0.00000  Uiso   1.00
Co796  Co    0.48343   0.36465   0.25099   0.00000  Uiso   1.00
Co797  Co    0.48343   0.63535   0.74483   0.00000  Uiso   1.00
Co798  Co    0.48343   0.63535   0.25062   0.00000  Uiso   1.00
Co799  Co    0.48343   0.36465   0.74521   0.00000  Uiso   1.00
Co800  Co    0.30986   0.31953   0.38834   0.00000  Uiso   1.00
Co801  Co    0.30986   0.68047   0.60749   0.00000  Uiso   1.00
Co802  Co    0.68856   0.68047   0.60749   0.00000  Uiso   1.00
Co803  Co    0.68856   0.31953   0.38834   0.00000  Uiso   1.00
Co804  Co    0.30986   0.68047   0.38784   0.00000  Uiso   1.00
Co805  Co    0.30986   0.31953   0.60799   0.00000  Uiso   1.00
Co806  Co    0.68856   0.31953   0.60799   0.00000  Uiso   1.00
Co807  Co    0.68856   0.68047   0.38784   0.00000  Uiso   1.00
Co808  Co    0.21519   0.50000   0.49791   0.00000  Uiso   1.00
Co809  Co    0.49921   0.31953   0.27851   0.00000  Uiso   1.00
Co810  Co    0.49921   0.68047   0.71731   0.00000  Uiso   1.00
Co811  Co    0.78324   0.50000   0.49791   0.00000  Uiso   1.00
Co812  Co    0.76746   0.54512   0.58022   0.00000  Uiso   1.00
Co813  Co    0.76746   0.45488   0.41561   0.00000  Uiso   1.00
Co814  Co    0.76746   0.45488   0.58035   0.00000  Uiso   1.00
Co815  Co    0.76746   0.54512   0.41548   0.00000  Uiso   1.00
Co816  Co    0.49921   0.68047   0.27801   0.00000  Uiso   1.00
Co817  Co    0.49921   0.31953   0.71782   0.00000  Uiso   1.00
Co818  Co    0.29408   0.45488   0.30578   0.00000  Uiso   1.00
Co819  Co    0.29408   0.54512   0.69005   0.00000  Uiso   1.00
Co820  Co    0.29408   0.54512   0.30566   0.00000  Uiso   1.00
Co821  Co    0.29408   0.45488   0.69017   0.00000  Uiso   1.00
Co822  Co    0.35720   0.50000   0.25081   0.00000  Uiso   1.00
Co823  Co    0.35720   0.50000   0.74502   0.00000  Uiso   1.00
Co824  Co    0.64122   0.50000   0.74502   0.00000  Uiso   1.00
Co825  Co    0.64122   0.50000   0.25080   0.00000  Uiso   1.00
Co826  Co    0.43610   0.45488   0.22341   0.00000  Uiso   1.00
Co827  Co    0.43610   0.54512   0.77242   0.00000  Uiso   1.00
Co828  Co    0.43610   0.54512   0.22329   0.00000  Uiso   1.00
Co829  Co    0.43610   0.45488   0.77254   0.00000  Uiso   1.00
Co830  Co    0.67278   0.72558   0.52506   0.00000  Uiso   1.00
Co831  Co    0.67278   0.27442   0.47077   0.00000  Uiso   1.00
Co832  Co    0.67278   0.27442   0.52569   0.00000  Uiso   1.00
Co833  Co    0.67278   0.72558   0.47014   0.00000  Uiso   1.00
Co834  Co    0.38876   0.27442   0.36095   0.00000  Uiso   1.00
Co835  Co    0.38876   0.72558   0.63488   0.00000  Uiso   1.00
Co836  Co    0.43610   0.27442   0.33349   0.00000  Uiso   1.00
Co837  Co    0.43610   0.72558   0.66234   0.00000  Uiso   1.00
Co838  Co    0.38876   0.72558   0.36032   0.00000  Uiso   1.00
Co839  Co    0.38876   0.27442   0.63551   0.00000  Uiso   1.00
Co840  Co    0.24675   0.63535   0.49773   0.00000  Uiso   1.00
Co841  Co    0.24675   0.36465   0.49810   0.00000  Uiso   1.00
Co842  Co    0.43610   0.72558   0.33286   0.00000  Uiso   1.00
Co843  Co    0.43610   0.27442   0.66297   0.00000  Uiso   1.00
Co844  Co    0.40454   0.77070   0.49754   0.00000  Uiso   1.00
Co845  Co    0.40454   0.22930   0.49829   0.00000  Uiso   1.00
Co846  Co    0.45187   0.22930   0.41592   0.00000  Uiso   1.00
Co847  Co    0.45187   0.77070   0.57991   0.00000  Uiso   1.00
Co848  Co    0.54655   0.22930   0.41592   0.00000  Uiso   1.00
Co849  Co    0.54655   0.77070   0.57991   0.00000  Uiso   1.00
Co850  Co    0.59389   0.77070   0.49754   0.00000  Uiso   1.00
Co851  Co    0.59389   0.22930   0.49829   0.00000  Uiso   1.00
Co852  Co    0.45187   0.77070   0.41517   0.00000  Uiso   1.00
Co853  Co    0.45187   0.22930   0.58066   0.00000  Uiso   1.00
Co854  Co    0.54655   0.77070   0.41517   0.00000  Uiso   1.00
Co855  Co    0.54655   0.22930   0.58066   0.00000  Uiso   1.00
Co856  Co    0.62545   0.36465   0.27845   0.00000  Uiso   1.00
Co857  Co    0.62545   0.63535   0.71738   0.00000  Uiso   1.00
Co858  Co    0.62545   0.63535   0.27807   0.00000  Uiso   1.00
Co859  Co    0.62545   0.36465   0.71776   0.00000  Uiso   1.00
Co860  Co    0.26252   0.40977   0.36076   0.00000  Uiso   1.00
Co861  Co    0.26252   0.59023   0.63507   0.00000  Uiso   1.00
Co862  Co    0.26252   0.59023   0.36051   0.00000  Uiso   1.00
Co863  Co    0.26252   0.40977   0.63532   0.00000  Uiso   1.00
Co864  Co    0.73590   0.59023   0.63507   0.00000  Uiso   1.00
Co865  Co    0.73590   0.40977   0.36076   0.00000  Uiso   1.00
Co866  Co    0.73590   0.40977   0.63532   0.00000  Uiso   1.00
Co867  Co    0.73590   0.59023   0.36051   0.00000  Uiso   1.00
Co868  Co    0.49921   0.40977   0.22347   0.00000  Uiso   1.00
Co869  Co    0.49921   0.59023   0.77235   0.00000  Uiso   1.00
Co870  Co    0.49921   0.59023   0.22322   0.00000  Uiso   1.00
Co871  Co    0.49921   0.40977   0.77261   0.00000  Uiso   1.00
Co872  Co    0.21519   0.50000   0.44300   0.00000  Uiso   1.00
Co873  Co    0.21519   0.50000   0.55283   0.00000  Uiso   1.00
Co874  Co    0.78324   0.50000   0.55283   0.00000  Uiso   1.00
Co875  Co    0.78324   0.50000   0.44300   0.00000  Uiso   1.00
Co876  Co    0.30986   0.50000   0.27826   0.00000  Uiso   1.00
Co877  Co    0.30986   0.50000   0.71757   0.00000  Uiso   1.00
Co878  Co    0.68856   0.50000   0.71757   0.00000  Uiso   1.00
Co879  Co    0.68856   0.50000   0.27826   0.00000  Uiso   1.00
Co880  Co    0.40454   0.50000   0.22335   0.00000  Uiso   1.00
Co881  Co    0.40454   0.50000   0.77248   0.00000  Uiso   1.00
Co882  Co    0.59389   0.50000   0.22335   0.00000  Uiso   1.00
Co883  Co    0.59389   0.50000   0.77248   0.00000  Uiso   1.00
Co884  Co    0.24675   0.36465   0.44319   0.00000  Uiso   1.00
Co885  Co    0.24675   0.63535   0.55264   0.00000  Uiso   1.00
Co886  Co    0.24675   0.63535   0.44281   0.00000  Uiso   1.00
Co887  Co    0.24675   0.36465   0.55302   0.00000  Uiso   1.00
Co888  Co    0.40454   0.22930   0.44338   0.00000  Uiso   1.00
Co889  Co    0.40454   0.77070   0.55245   0.00000  Uiso   1.00
Co890  Co    0.59389   0.22930   0.44338   0.00000  Uiso   1.00
Co891  Co    0.59389   0.77070   0.55245   0.00000  Uiso   1.00
Co892  Co    0.49921   0.22930   0.38847   0.00000  Uiso   1.00
Co893  Co    0.49921   0.77070   0.60736   0.00000  Uiso   1.00
Co894  Co    0.40454   0.77070   0.44262   0.00000  Uiso   1.00
Co895  Co    0.40454   0.22930   0.55321   0.00000  Uiso   1.00
Co896  Co    0.59389   0.77070   0.44262   0.00000  Uiso   1.00
Co897  Co    0.59389   0.22930   0.55321   0.00000  Uiso   1.00
Co898  Co    0.67278   0.63535   0.68992   0.00000  Uiso   1.00
Co899  Co    0.67278   0.36465   0.30591   0.00000  Uiso   1.00
Co900  Co    0.49921   0.77070   0.38771   0.00000  Uiso   1.00
Co901  Co    0.49921   0.22930   0.60812   0.00000  Uiso   1.00
Co902  Co    0.67278   0.63535   0.30553   0.00000  Uiso   1.00
Co903  Co    0.67278   0.36465   0.69030   0.00000  Uiso   1.00
Co904  Co    0.57811   0.36465   0.25099   0.00000  Uiso   1.00
Co905  Co    0.57811   0.63535   0.74483   0.00000  Uiso   1.00
Co906  Co    0.57811   0.63535   0.25062   0.00000  Uiso   1.00
Co907  Co    0.57811   0.36465   0.74521   0.00000  Uiso   1.00
Co908  Co    0.34142   0.27442   0.38840   0.00000  Uiso   1.00
Co909  Co    0.34142   0.72558   0.60743   0.00000  Uiso   1.00
Co910  Co    0.67278   0.72558   0.57997   0.00000  Uiso   1.00
Co911  Co    0.67278   0.27442   0.41586   0.00000  Uiso   1.00
Co912  Co    0.67278   0.72558   0.41523   0.00000  Uiso   1.00
Co913  Co    0.67278   0.27442   0.58060   0.00000  Uiso   1.00
Co914  Co    0.34142   0.72558   0.38777   0.00000  Uiso   1.00
Co915  Co    0.34142   0.27442   0.60806   0.00000  Uiso   1.00
Co916  Co    0.48343   0.27442   0.30603   0.00000  Uiso   1.00
Co917  Co    0.48343   0.72558   0.68979   0.00000  Uiso   1.00
Co918  Co    0.48343   0.72558   0.30540   0.00000  Uiso   1.00
Co919  Co    0.48343   0.27442   0.69043   0.00000  Uiso   1.00
Co920  Co    0.21519   0.59023   0.49779   0.00000  Uiso   1.00
Co921  Co    0.21519   0.40977   0.49804   0.00000  Uiso   1.00
Co922  Co    0.78324   0.40977   0.49804   0.00000  Uiso   1.00
Co923  Co    0.78324   0.59023   0.49779   0.00000  Uiso   1.00
Co924  Co    0.35720   0.40977   0.25093   0.00000  Uiso   1.00
Co925  Co    0.35720   0.59023   0.74490   0.00000  Uiso   1.00
Co926  Co    0.26252   0.31953   0.47071   0.00000  Uiso   1.00
Co927  Co    0.26252   0.68047   0.52512   0.00000  Uiso   1.00
Co928  Co    0.26252   0.68047   0.47021   0.00000  Uiso   1.00
Co929  Co    0.26252   0.31953   0.52562   0.00000  Uiso   1.00
Co930  Co    0.64122   0.40977   0.25093   0.00000  Uiso   1.00
Co931  Co    0.64122   0.59023   0.74490   0.00000  Uiso   1.00
Co932  Co    0.73590   0.68047   0.52512   0.00000  Uiso   1.00
Co933  Co    0.73590   0.31953   0.47071   0.00000  Uiso   1.00
Co934  Co    0.73590   0.31953   0.52562   0.00000  Uiso   1.00
Co935  Co    0.73590   0.68047   0.47021   0.00000  Uiso   1.00
Co936  Co    0.35720   0.59023   0.25068   0.00000  Uiso   1.00
Co937  Co    0.35720   0.40977   0.74515   0.00000  Uiso   1.00
Co938  Co    0.64122   0.59023   0.25068   0.00000  Uiso   1.00
Co939  Co    0.64122   0.40977   0.74515   0.00000  Uiso   1.00
Co940  Co    0.35720   0.31953   0.30597   0.00000  Uiso   1.00
Co941  Co    0.35720   0.68047   0.68986   0.00000  Uiso   1.00
Co942  Co    0.64122   0.31953   0.30597   0.00000  Uiso   1.00
Co943  Co    0.64122   0.68047   0.68986   0.00000  Uiso   1.00
Co944  Co    0.40454   0.31953   0.27851   0.00000  Uiso   1.00
Co945  Co    0.40454   0.68047   0.71731   0.00000  Uiso   1.00
Co946  Co    0.59389   0.31953   0.27851   0.00000  Uiso   1.00
Co947  Co    0.59389   0.68047   0.71731   0.00000  Uiso   1.00
Co948  Co    0.35720   0.68047   0.30547   0.00000  Uiso   1.00
Co949  Co    0.35720   0.31953   0.69036   0.00000  Uiso   1.00
Co950  Co    0.64122   0.68047   0.30547   0.00000  Uiso   1.00
Co951  Co    0.64122   0.31953   0.69036   0.00000  Uiso   1.00
Co952  Co    0.40454   0.68047   0.27801   0.00000  Uiso   1.00
Co953  Co    0.40454   0.31953   0.71782   0.00000  Uiso   1.00
Co954  Co    0.59389   0.68047   0.27801   0.00000  Uiso   1.00
Co955  Co    0.59389   0.31953   0.71782   0.00000  Uiso   1.00
Co956  Co    0.76746   0.63535   0.52518   0.00000  Uiso   1.00
Co957  Co    0.76746   0.36465   0.47065   0.00000  Uiso   1.00
Co958  Co    0.76746   0.36465   0.52556   0.00000  Uiso   1.00
Co959  Co    0.76746   0.63535   0.47027   0.00000  Uiso   1.00
Co960  Co    0.34142   0.36465   0.27845   0.00000  Uiso   1.00
Co961  Co    0.34142   0.63535   0.71738   0.00000  Uiso   1.00
Co962  Co    0.38876   0.36465   0.25099   0.00000  Uiso   1.00
Co963  Co    0.38876   0.63535   0.74483   0.00000  Uiso   1.00
Co964  Co    0.34142   0.63535   0.27807   0.00000  Uiso   1.00
Co965  Co    0.34142   0.36465   0.71776   0.00000  Uiso   1.00
Co966  Co    0.38876   0.63535   0.25062   0.00000  Uiso   1.00
Co967  Co    0.38876   0.36465   0.74521   0.00000  Uiso   1.00
Co968  Co    0.21519   0.40977   0.44313   0.00000  Uiso   1.00
Co969  Co    0.21519   0.59023   0.55270   0.00000  Uiso   1.00
Co970  Co    0.21519   0.59023   0.44287   0.00000  Uiso   1.00
Co971  Co    0.21519   0.40977   0.55295   0.00000  Uiso   1.00
Co972  Co    0.78324   0.59023   0.55270   0.00000  Uiso   1.00
Co973  Co    0.78324   0.40977   0.44313   0.00000  Uiso   1.00
Co974  Co    0.78324   0.40977   0.55295   0.00000  Uiso   1.00
Co975  Co    0.78324   0.59023   0.44287   0.00000  Uiso   1.00
Co976  Co    0.30986   0.40977   0.27839   0.00000  Uiso   1.00
Co977  Co    0.30986   0.59023   0.71744   0.00000  Uiso   1.00
Co978  Co    0.68856   0.59023   0.71744   0.00000  Uiso   1.00
Co979  Co    0.68856   0.40977   0.27839   0.00000  Uiso   1.00
Co980  Co    0.30986   0.59023   0.27814   0.00000  Uiso   1.00
Co981  Co    0.30986   0.40977   0.71769   0.00000  Uiso   1.00
Co982  Co    0.68856   0.40977   0.71769   0.00000  Uiso   1.00
Co983  Co    0.68856   0.59023   0.27814   0.00000  Uiso   1.00
Co984  Co    0.40454   0.40977   0.22347   0.00000  Uiso   1.00
Co985  Co    0.40454   0.59023   0.77235   0.00000  Uiso   1.00
Co986  Co    0.59389   0.40977   0.22347   0.00000  Uiso   1.00
Co987  Co    0.59389   0.59023   0.77235   0.00000  Uiso   1.00
Co988  Co    0.40454   0.59023   0.22322   0.00000  Uiso   1.00
Co989  Co    0.40454   0.40977   0.77261   0.00000  Uiso   1.00
Co990  Co    0.59389   0.59023   0.22322   0.00000  Uiso   1.00
Co991  Co    0.59389   0.40977   0.77261   0.00000  Uiso   1.00
Co992  Co    0.19941   0.45488   0.47052   0.00000  Uiso   1.00
Co993  Co    0.19941   0.54512   0.52531   0.00000  Uiso   1.00
Co994  Co    0.19941   0.54512   0.47039   0.00000  Uiso   1.00
Co995  Co    0.19941   0.45488   0.52543   0.00000  Uiso   1.00
Co996  Co    0.21519   0.50000   0.38809   0.00000  Uiso   1.00
Co997  Co    0.21519   0.50000   0.60774   0.00000  Uiso   1.00
Co998  Co    0.78324   0.50000   0.60774   0.00000  Uiso   1.00
Co999  Co    0.78324   0.50000   0.38809   0.00000  Uiso   1.00
Co1000 Co    0.24675   0.45488   0.33324   0.00000  Uiso   1.00
Co1001 Co    0.24675   0.54512   0.66259   0.00000  Uiso   1.00
Co1002 Co    0.76746   0.54512   0.63513   0.00000  Uiso   1.00
Co1003 Co    0.76746   0.45488   0.36069   0.00000  Uiso   1.00
Co1004 Co    0.24675   0.54512   0.33311   0.00000  Uiso   1.00
Co1005 Co    0.24675   0.45488   0.66272   0.00000  Uiso   1.00
Co1006 Co    0.76746   0.45488   0.63526   0.00000  Uiso   1.00
Co1007 Co    0.76746   0.54512   0.36057   0.00000  Uiso   1.00
Co1008 Co    0.26252   0.50000   0.30572   0.00000  Uiso   1.00
Co1009 Co    0.26252   0.50000   0.69011   0.00000  Uiso   1.00
Co1010 Co    0.73590   0.50000   0.69011   0.00000  Uiso   1.00
Co1011 Co    0.73590   0.50000   0.30572   0.00000  Uiso   1.00
Co1012 Co    0.67278   0.45488   0.25087   0.00000  Uiso   1.00
Co1013 Co    0.67278   0.54512   0.74496   0.00000  Uiso   1.00
Co1014 Co    0.67278   0.54512   0.25074   0.00000  Uiso   1.00
Co1015 Co    0.67278   0.45488   0.74509   0.00000  Uiso   1.00
Co1016 Co    0.62545   0.45488   0.22341   0.00000  Uiso   1.00
Co1017 Co    0.62545   0.54512   0.77242   0.00000  Uiso   1.00
Co1018 Co    0.62545   0.54512   0.22329   0.00000  Uiso   1.00
Co1019 Co    0.62545   0.45488   0.77254   0.00000  Uiso   1.00
Co1020 Co    0.45187   0.50000   0.19589   0.00000  Uiso   1.00
Co1021 Co    0.45187   0.50000   0.79994   0.00000  Uiso   1.00
Co1022 Co    0.48343   0.45488   0.19595   0.00000  Uiso   1.00
Co1023 Co    0.48343   0.54512   0.79987   0.00000  Uiso   1.00
Co1024 Co    0.54655   0.50000   0.19589   0.00000  Uiso   1.00
Co1025 Co    0.54655   0.50000   0.79994   0.00000  Uiso   1.00
Co1026 Co    0.48343   0.54512   0.19583   0.00000  Uiso   1.00
Co1027 Co    0.48343   0.45488   0.80000   0.00000  Uiso   1.00
Co1028 Co    0.29408   0.27442   0.47077   0.00000  Uiso   1.00
Co1029 Co    0.29408   0.72558   0.52506   0.00000  Uiso   1.00
Co1030 Co    0.29408   0.72558   0.47014   0.00000  Uiso   1.00
Co1031 Co    0.29408   0.27442   0.52569   0.00000  Uiso   1.00
Co1032 Co    0.62545   0.27442   0.33349   0.00000  Uiso   1.00
Co1033 Co    0.62545   0.72558   0.66234   0.00000  Uiso   1.00
Co1034 Co    0.57811   0.27442   0.30603   0.00000  Uiso   1.00
Co1035 Co    0.57811   0.72558   0.68979   0.00000  Uiso   1.00
Co1036 Co    0.24675   0.36465   0.38828   0.00000  Uiso   1.00
Co1037 Co    0.24675   0.63535   0.60755   0.00000  Uiso   1.00
Co1038 Co    0.62545   0.72558   0.33286   0.00000  Uiso   1.00
Co1039 Co    0.62545   0.27442   0.66297   0.00000  Uiso   1.00
Co1040 Co    0.24675   0.63535   0.38790   0.00000  Uiso   1.00
Co1041 Co    0.24675   0.36465   0.60793   0.00000  Uiso   1.00
Co1042 Co    0.35720   0.22930   0.47084   0.00000  Uiso   1.00
Co1043 Co    0.35720   0.77070   0.52499   0.00000  Uiso   1.00
Co1044 Co    0.57811   0.72558   0.30540   0.00000  Uiso   1.00
Co1045 Co    0.57811   0.27442   0.69043   0.00000  Uiso   1.00
Co1046 Co    0.35720   0.77070   0.47008   0.00000  Uiso   1.00
Co1047 Co    0.35720   0.22930   0.52575   0.00000  Uiso   1.00
Co1048 Co    0.40454   0.22930   0.38847   0.00000  Uiso   1.00
Co1049 Co    0.40454   0.77070   0.60736   0.00000  Uiso   1.00
Co1050 Co    0.64122   0.22930   0.47084   0.00000  Uiso   1.00
Co1051 Co    0.64122   0.77070   0.52499   0.00000  Uiso   1.00
Co1052 Co    0.59389   0.22930   0.38847   0.00000  Uiso   1.00
Co1053 Co    0.59389   0.77070   0.60736   0.00000  Uiso   1.00
Co1054 Co    0.72012   0.63535   0.66246   0.00000  Uiso   1.00
Co1055 Co    0.64122   0.77070   0.47008   0.00000  Uiso   1.00
Co1056 Co    0.64122   0.22930   0.52575   0.00000  Uiso   1.00
Co1057 Co    0.72012   0.36465   0.33333   0.00000  Uiso   1.00
Co1058 Co    0.45187   0.22930   0.36101   0.00000  Uiso   1.00
Co1059 Co    0.45187   0.77070   0.63482   0.00000  Uiso   1.00
Co1060 Co    0.54655   0.22930   0.36101   0.00000  Uiso   1.00
Co1061 Co    0.54655   0.77070   0.63482   0.00000  Uiso   1.00
Co1062 Co    0.72012   0.36465   0.66284   0.00000  Uiso   1.00
Co1063 Co    0.72012   0.63535   0.33299   0.00000  Uiso   1.00
Co1064 Co    0.40454   0.77070   0.38771   0.00000  Uiso   1.00
Co1065 Co    0.40454   0.22930   0.60812   0.00000  Uiso   1.00
Co1066 Co    0.59389   0.77070   0.38771   0.00000  Uiso   1.00
Co1067 Co    0.59389   0.22930   0.60812   0.00000  Uiso   1.00
Co1068 Co    0.45187   0.77070   0.36025   0.00000  Uiso   1.00
Co1069 Co    0.45187   0.22930   0.63558   0.00000  Uiso   1.00
Co1070 Co    0.54655   0.77070   0.36025   0.00000  Uiso   1.00
Co1071 Co    0.54655   0.22930   0.63558   0.00000  Uiso   1.00
Co1072 Co    0.53077   0.36465   0.22354   0.00000  Uiso   1.00
Co1073 Co    0.53077   0.63535   0.77229   0.00000  Uiso   1.00
Co1074 Co    0.53077   0.63535   0.22316   0.00000  Uiso   1.00
Co1075 Co    0.53077   0.36465   0.77267   0.00000  Uiso   1.00
Co1076 Co    0.26252   0.31953   0.41580   0.00000  Uiso   1.00
Co1077 Co    0.26252   0.68047   0.58003   0.00000  Uiso   1.00
Co1078 Co    0.26252   0.68047   0.41529   0.00000  Uiso   1.00
Co1079 Co    0.26252   0.31953   0.58054   0.00000  Uiso   1.00
Co1080 Co    0.73590   0.68047   0.58003   0.00000  Uiso   1.00
Co1081 Co    0.73590   0.31953   0.41580   0.00000  Uiso   1.00
Co1082 Co    0.30986   0.31953   0.33343   0.00000  Uiso   1.00
Co1083 Co    0.30986   0.68047   0.66240   0.00000  Uiso   1.00
Co1084 Co    0.73590   0.31953   0.58054   0.00000  Uiso   1.00
Co1085 Co    0.73590   0.68047   0.41529   0.00000  Uiso   1.00
Co1086 Co    0.68856   0.68047   0.66240   0.00000  Uiso   1.00
Co1087 Co    0.68856   0.31953   0.33343   0.00000  Uiso   1.00
Co1088 Co    0.30986   0.68047   0.33292   0.00000  Uiso   1.00
Co1089 Co    0.30986   0.31953   0.66291   0.00000  Uiso   1.00
Co1090 Co    0.68856   0.31953   0.66291   0.00000  Uiso   1.00
Co1091 Co    0.68856   0.68047   0.33292   0.00000  Uiso   1.00
Co1092 Co    0.45187   0.31953   0.25106   0.00000  Uiso   1.00
Co1093 Co    0.45187   0.68047   0.74477   0.00000  Uiso   1.00
Co1094 Co    0.54655   0.31953   0.25106   0.00000  Uiso   1.00
Co1095 Co    0.54655   0.68047   0.74477   0.00000  Uiso   1.00
Co1096 Co    0.45187   0.68047   0.25055   0.00000  Uiso   1.00
Co1097 Co    0.45187   0.31953   0.74528   0.00000  Uiso   1.00
Co1098 Co    0.54655   0.68047   0.25055   0.00000  Uiso   1.00
Co1099 Co    0.54655   0.31953   0.74528   0.00000  Uiso   1.00
Co1100 Co    0.76746   0.63535   0.58009   0.00000  Uiso   1.00
Co1101 Co    0.76746   0.36465   0.41573   0.00000  Uiso   1.00
Co1102 Co    0.76746   0.36465   0.58047   0.00000  Uiso   1.00
Co1103 Co    0.76746   0.63535   0.41536   0.00000  Uiso   1.00
Co1104 Co    0.29408   0.36465   0.30591   0.00000  Uiso   1.00
Co1105 Co    0.29408   0.63535   0.68992   0.00000  Uiso   1.00
Co1106 Co    0.29408   0.63535   0.30553   0.00000  Uiso   1.00
Co1107 Co    0.29408   0.36465   0.69030   0.00000  Uiso   1.00
Co1108 Co    0.43610   0.36465   0.22354   0.00000  Uiso   1.00
Co1109 Co    0.43610   0.63535   0.77229   0.00000  Uiso   1.00
Co1110 Co    0.43610   0.63535   0.22316   0.00000  Uiso   1.00
Co1111 Co    0.43610   0.36465   0.77267   0.00000  Uiso   1.00
Co1112 Co    0.19941   0.45488   0.41561   0.00000  Uiso   1.00
Co1113 Co    0.19941   0.54512   0.58022   0.00000  Uiso   1.00
Co1114 Co    0.19941   0.54512   0.41548   0.00000  Uiso   1.00
Co1115 Co    0.19941   0.45488   0.58035   0.00000  Uiso   1.00
Co1116 Co    0.72012   0.54512   0.71750   0.00000  Uiso   1.00
Co1117 Co    0.72012   0.45488   0.27832   0.00000  Uiso   1.00
Co1118 Co    0.72012   0.45488   0.71763   0.00000  Uiso   1.00
Co1119 Co    0.72012   0.54512   0.27820   0.00000  Uiso   1.00
Co1120 Co    0.57811   0.45488   0.19595   0.00000  Uiso   1.00
Co1121 Co    0.57811   0.54512   0.79987   0.00000  Uiso   1.00
Co1122 Co    0.57811   0.54512   0.19583   0.00000  Uiso   1.00
Co1123 Co    0.57811   0.45488   0.80000   0.00000  Uiso   1.00
Co1124 Co    0.29408   0.27442   0.41586   0.00000  Uiso   1.00
Co1125 Co    0.29408   0.72558   0.57997   0.00000  Uiso   1.00
Co1126 Co    0.72012   0.27442   0.49823   0.00000  Uiso   1.00
Co1127 Co    0.72012   0.72558   0.49760   0.00000  Uiso   1.00
Co1128 Co    0.29408   0.72558   0.41523   0.00000  Uiso   1.00
Co1129 Co    0.29408   0.27442   0.58060   0.00000  Uiso   1.00
Co1130 Co    0.67278   0.72558   0.63488   0.00000  Uiso   1.00
Co1131 Co    0.67278   0.27442   0.36095   0.00000  Uiso   1.00
Co1132 Co    0.38876   0.27442   0.30603   0.00000  Uiso   1.00
Co1133 Co    0.38876   0.72558   0.68979   0.00000  Uiso   1.00
Co1134 Co    0.67278   0.72558   0.36032   0.00000  Uiso   1.00
Co1135 Co    0.67278   0.27442   0.63551   0.00000  Uiso   1.00
Co1136 Co    0.53077   0.27442   0.27858   0.00000  Uiso   1.00
Co1137 Co    0.53077   0.72558   0.71725   0.00000  Uiso   1.00
Co1138 Co    0.38876   0.72558   0.30540   0.00000  Uiso   1.00
Co1139 Co    0.38876   0.27442   0.69043   0.00000  Uiso   1.00
Co1140 Co    0.35720   0.22930   0.41592   0.00000  Uiso   1.00
Co1141 Co    0.35720   0.77070   0.57991   0.00000  Uiso   1.00
Co1142 Co    0.64122   0.22930   0.41592   0.00000  Uiso   1.00
Co1143 Co    0.64122   0.77070   0.57991   0.00000  Uiso   1.00
Co1144 Co    0.35720   0.77070   0.41517   0.00000  Uiso   1.00
Co1145 Co    0.35720   0.22930   0.58066   0.00000  Uiso   1.00
Co1146 Co    0.53077   0.72558   0.27795   0.00000  Uiso   1.00
Co1147 Co    0.53077   0.27442   0.71788   0.00000  Uiso   1.00
Co1148 Co    0.49921   0.22930   0.33355   0.00000  Uiso   1.00
Co1149 Co    0.49921   0.77070   0.66228   0.00000  Uiso   1.00
Co1150 Co    0.64122   0.77070   0.41517   0.00000  Uiso   1.00
Co1151 Co    0.64122   0.22930   0.58066   0.00000  Uiso   1.00
Co1152 Co    0.49921   0.77070   0.33280   0.00000  Uiso   1.00
Co1153 Co    0.49921   0.22930   0.66303   0.00000  Uiso   1.00
Co1154 Co    0.48343   0.18418   0.47090   0.00000  Uiso   1.00
Co1155 Co    0.48343   0.81582   0.52493   0.00000  Uiso   1.00
Co1156 Co    0.53077   0.81582   0.49747   0.00000  Uiso   1.00
Co1157 Co    0.53077   0.18418   0.49836   0.00000  Uiso   1.00
Co1158 Co    0.48343   0.81582   0.47002   0.00000  Uiso   1.00
Co1159 Co    0.48343   0.18418   0.52581   0.00000  Uiso   1.00
Co1160 Co    0.21519   0.40977   0.38821   0.00000  Uiso   1.00
Co1161 Co    0.21519   0.59023   0.60761   0.00000  Uiso   1.00
Co1162 Co    0.21519   0.59023   0.38796   0.00000  Uiso   1.00
Co1163 Co    0.21519   0.40977   0.60787   0.00000  Uiso   1.00
Co1164 Co    0.78324   0.59023   0.60761   0.00000  Uiso   1.00
Co1165 Co    0.78324   0.40977   0.38821   0.00000  Uiso   1.00
Co1166 Co    0.78324   0.40977   0.60787   0.00000  Uiso   1.00
Co1167 Co    0.78324   0.59023   0.38796   0.00000  Uiso   1.00
Co1168 Co    0.26252   0.40977   0.30584   0.00000  Uiso   1.00
Co1169 Co    0.26252   0.59023   0.68998   0.00000  Uiso   1.00
Co1170 Co    0.73590   0.59023   0.68998   0.00000  Uiso   1.00
Co1171 Co    0.73590   0.40977   0.30584   0.00000  Uiso   1.00
Co1172 Co    0.26252   0.59023   0.30559   0.00000  Uiso   1.00
Co1173 Co    0.26252   0.40977   0.69024   0.00000  Uiso   1.00
Co1174 Co    0.73590   0.40977   0.69024   0.00000  Uiso   1.00
Co1175 Co    0.73590   0.59023   0.30559   0.00000  Uiso   1.00
Co1176 Co    0.45187   0.40977   0.19602   0.00000  Uiso   1.00
Co1177 Co    0.45187   0.59023   0.79981   0.00000  Uiso   1.00
Co1178 Co    0.54655   0.40977   0.19602   0.00000  Uiso   1.00
Co1179 Co    0.54655   0.59023   0.79981   0.00000  Uiso   1.00
Co1180 Co    0.45187   0.59023   0.19577   0.00000  Uiso   1.00
Co1181 Co    0.45187   0.40977   0.80006   0.00000  Uiso   1.00
Co1182 Co    0.54655   0.59023   0.19577   0.00000  Uiso   1.00
Co1183 Co    0.54655   0.40977   0.80006   0.00000  Uiso   1.00
Co1184 Co    0.81480   0.45488   0.49798   0.00000  Uiso   1.00
Co1185 Co    0.81480   0.54512   0.49785   0.00000  Uiso   1.00
Co1186 Co    0.34142   0.45488   0.22341   0.00000  Uiso   1.00
Co1187 Co    0.34142   0.54512   0.77242   0.00000  Uiso   1.00
Pt1188 Pt    0.34142   0.54512   0.22329   0.00000  Uiso   1.00
Pt1189 Pt    0.34142   0.45488   0.77254   0.00000  Uiso   1.00
Pt1190 Pt    0.72012   0.72558   0.55251   0.00000  Uiso   1.00
Pt1191 Pt    0.72012   0.27442   0.44332   0.00000  Uiso   1.00
Pt1192 Pt    0.72012   0.27442   0.55314   0.00000  Uiso   1.00
Pt1193 Pt    0.72012   0.72558   0.44269   0.00000  Uiso   1.00
Pt1194 Pt    0.34142   0.27442   0.33349   0.00000  Uiso   1.00
Pt1195 Pt    0.34142   0.72558   0.66234   0.00000  Uiso   1.00
Pt1196 Pt    0.43610   0.27442   0.27858   0.00000  Uiso   1.00
Pt1197 Pt    0.43610   0.72558   0.71725   0.00000  Uiso   1.00
Pt1198 Pt    0.34142   0.72558   0.33286   0.00000  Uiso   1.00
Pt1199 Pt    0.34142   0.27442   0.66297   0.00000  Uiso   1.00
Pt1200 Pt    0.43610   0.72558   0.27795   0.00000  Uiso   1.00
Pt1201 Pt    0.43610   0.27442   0.71788   0.00000  Uiso   1.00
Pt1202 Pt    0.53077   0.18418   0.44344   0.00000  Uiso   1.00
Pt1203 Pt    0.53077   0.81582   0.55239   0.00000  Uiso   1.00
Pt1204 Pt    0.43610   0.81582   0.49747   0.00000  Uiso   1.00
Pt1205 Pt    0.43610   0.18418   0.49836   0.00000  Uiso   1.00
Pt1206 Pt    0.53077   0.81582   0.44256   0.00000  Uiso   1.00
Pt1207 Pt    0.53077   0.18418   0.55327   0.00000  Uiso   1.00
Pt1208 Pt    0.81480   0.54512   0.55276   0.00000  Uiso   1.00
Pt1209 Pt    0.81480   0.45488   0.44306   0.00000  Uiso   1.00
Pt1210 Pt    0.81480   0.45488   0.55289   0.00000  Uiso   1.00
Pt1211 Pt    0.81480   0.54512   0.44294   0.00000  Uiso   1.00
Pt1212 Pt    0.29408   0.45488   0.25087   0.00000  Uiso   1.00
Pt1213 Pt    0.29408   0.54512   0.74496   0.00000  Uiso   1.00
Pt1214 Pt    0.29408   0.54512   0.25074   0.00000  Uiso   1.00
Pt1215 Pt    0.29408   0.45488   0.74509   0.00000  Uiso   1.00
Pt1216 Pt    0.38876   0.45488   0.19595   0.00000  Uiso   1.00
Pt1217 Pt    0.38876   0.54512   0.79987   0.00000  Uiso   1.00
Pt1218 Pt    0.38876   0.54512   0.19583   0.00000  Uiso   1.00
Pt1219 Pt    0.38876   0.45488   0.80000   0.00000  Uiso   1.00
Pt1220 Pt    0.43610   0.18418   0.44344   0.00000  Uiso   1.00
Pt1221 Pt    0.43610   0.81582   0.55239   0.00000  Uiso   1.00
Pt1222 Pt    0.48343   0.18418   0.41599   0.00000  Uiso   1.00
Pt1223 Pt    0.48343   0.81582   0.57984   0.00000  Uiso   1.00
Pt1224 Pt    0.57811   0.18418   0.47090   0.00000  Uiso   1.00
Pt1225 Pt    0.57811   0.81582   0.52493   0.00000  Uiso   1.00
Pt1226 Pt    0.57811   0.81582   0.47002   0.00000  Uiso   1.00
Pt1227 Pt    0.57811   0.18418   0.52581   0.00000  Uiso   1.00
Pt1228 Pt    0.43610   0.81582   0.44256   0.00000  Uiso   1.00
Pt1229 Pt    0.43610   0.18418   0.55327   0.00000  Uiso   1.00
Pt1230 Pt    0.48343   0.81582   0.41510   0.00000  Uiso   1.00
Pt1231 Pt    0.48343   0.18418   0.58073   0.00000  Uiso   1.00
Pt1232 Pt    0.26252   0.31953   0.36088   0.00000  Uiso   1.00
Pt1233 Pt    0.26252   0.68047   0.63494   0.00000  Uiso   1.00
Pt1234 Pt    0.73590   0.68047   0.63494   0.00000  Uiso   1.00
Pt1235 Pt    0.73590   0.31953   0.36088   0.00000  Uiso   1.00
Pt1236 Pt    0.26252   0.68047   0.36038   0.00000  Uiso   1.00
Pt1237 Pt    0.26252   0.31953   0.63545   0.00000  Uiso   1.00
Pt1238 Pt    0.73590   0.31953   0.63545   0.00000  Uiso   1.00
Pt1239 Pt    0.73590   0.68047   0.36038   0.00000  Uiso   1.00
Pt1240 Pt    0.21519   0.50000   0.33317   0.00000  Uiso   1.00
Pt1241 Pt    0.21519   0.50000   0.66265   0.00000  Uiso   1.00
Pt1242 Pt    0.49921   0.31953   0.22360   0.00000  Uiso   1.00
Pt1243 Pt    0.49921   0.68047   0.77223   0.00000  Uiso   1.00
Pt1244 Pt    0.78324   0.50000   0.66265   0.00000  Uiso   1.00
Pt1245 Pt    0.78324   0.50000   0.33317   0.00000  Uiso   1.00
Pt1246 Pt    0.49921   0.68047   0.22310   0.00000  Uiso   1.00
Pt1247 Pt    0.49921   0.31953   0.77273   0.00000  Uiso   1.00
Pt1248 Pt    0.24675   0.63535   0.66246   0.00000  Uiso   1.00
Pt1249 Pt    0.30986   0.77070   0.49754   0.00000  Uiso   1.00
Pt1250 Pt    0.30986   0.22930   0.49829   0.00000  Uiso   1.00
Pt1251 Pt    0.24675   0.36465   0.33333   0.00000  Uiso   1.00
Pt1252 Pt    0.76746   0.63535   0.63501   0.00000  Uiso   1.00
Pt1253 Pt    0.76746   0.36465   0.36082   0.00000  Uiso   1.00
Pt1254 Pt    0.68856   0.22930   0.49829   0.00000  Uiso   1.00
Pt1255 Pt    0.68856   0.77070   0.49754   0.00000  Uiso   1.00
Pt1256 Pt    0.24675   0.63535   0.33299   0.00000  Uiso   1.00
Pt1257 Pt    0.24675   0.36465   0.66284   0.00000  Uiso   1.00
Pt1258 Pt    0.76746   0.36465   0.63539   0.00000  Uiso   1.00
Pt1259 Pt    0.76746   0.63535   0.36044   0.00000  Uiso   1.00
Pt1260 Pt    0.40454   0.22930   0.33355   0.00000  Uiso   1.00
Pt1261 Pt    0.40454   0.77070   0.66228   0.00000  Uiso   1.00
Pt1262 Pt    0.59389   0.22930   0.33355   0.00000  Uiso   1.00
Pt1263 Pt    0.40454   0.77070   0.33280   0.00000  Uiso   1.00
Pt1264 Pt    0.40454   0.22930   0.66303   0.00000  Uiso   1.00
Pt1265 Pt    0.59389   0.77070   0.33280   0.00000  Uiso   1.00
Pt1266 Pt    0.59389   0.22930   0.66303   0.00000  Uiso   1.00
Pt1267 Pt    0.48343   0.36465   0.19608   0.00000  Uiso   1.00
Pt1268 Pt    0.48343   0.63535   0.79975   0.00000  Uiso   1.00
Pt1269 Pt    0.48343   0.63535   0.19570   0.00000  Uiso   1.00
Pt1270 Pt    0.48343   0.36465   0.80013   0.00000  Uiso   1.00
Pt1271 Pt    0.16785   0.50000   0.47046   0.00000  Uiso   1.00
Pt1272 Pt    0.16785   0.50000   0.52537   0.00000  Uiso   1.00
Pt1273 Pt    0.83057   0.50000   0.52537   0.00000  Uiso   1.00
Pt1274 Pt    0.83057   0.50000   0.47046   0.00000  Uiso   1.00
Pt1275 Pt    0.19941   0.45488   0.36069   0.00000  Uiso   1.00
Pt1276 Pt    0.19941   0.54512   0.63513   0.00000  Uiso   1.00
Pt1277 Pt    0.19941   0.54512   0.36057   0.00000  Uiso   1.00
Pt1278 Pt    0.19941   0.45488   0.63526   0.00000  Uiso   1.00
Pt1279 Pt    0.76746   0.54512   0.69005   0.00000  Uiso   1.00
Pt1280 Pt    0.76746   0.45488   0.30578   0.00000  Uiso   1.00
Pt1281 Pt    0.76746   0.45488   0.69017   0.00000  Uiso   1.00
Pt1282 Pt    0.76746   0.54512   0.30566   0.00000  Uiso   1.00
