data_con1.3_15nm
_audit_creation_date              2024-08-02
_audit_creation_method            'Materials Studio'
_symmetry_space_group_name_H-M    'P1'
_symmetry_Int_Tables_number       1
_symmetry_cell_setting            triclinic
loop_
_symmetry_equiv_pos_as_xyz
  x,y,z
_cell_length_a                    45.0000
_cell_length_b                    45.0000
_cell_length_c                    45.0000
_cell_angle_alpha                 90.0000
_cell_angle_beta                  90.0000
_cell_angle_gamma                 90.0000
loop_
_atom_site_label
_atom_site_type_symbol
_atom_site_fract_x
_atom_site_fract_y
_atom_site_fract_z
_atom_site_U_iso_or_equiv
_atom_site_adp_type
_atom_site_occupancy
Co0    Co    0.45695   0.50000   0.46303   0.00000  Uiso   1.00
Co1    Co    0.50000   0.45695   0.46303   0.00000  Uiso   1.00
Co2    Co    0.54305   0.50000   0.46303   0.00000  Uiso   1.00
Co3    Co    0.50000   0.54305   0.46303   0.00000  Uiso   1.00
Co4    Co    0.58610   0.45695   0.46303   0.00000  Uiso   1.00
Co5    Co    0.45695   0.41390   0.46303   0.00000  Uiso   1.00
Co6    Co    0.45695   0.58610   0.46303   0.00000  Uiso   1.00
Co7    Co    0.41390   0.45695   0.46303   0.00000  Uiso   1.00
Co8    Co    0.54305   0.41390   0.46303   0.00000  Uiso   1.00
Co9    Co    0.58610   0.54305   0.46303   0.00000  Uiso   1.00
Co10   Co    0.54305   0.58610   0.46303   0.00000  Uiso   1.00
Co11   Co    0.41390   0.54305   0.46303   0.00000  Uiso   1.00
Co12   Co    0.50000   0.37085   0.46303   0.00000  Uiso   1.00
Co13   Co    0.37085   0.50000   0.46303   0.00000  Uiso   1.00
Co14   Co    0.62915   0.50000   0.46303   0.00000  Uiso   1.00
Co15   Co    0.50000   0.62915   0.46303   0.00000  Uiso   1.00
Co16   Co    0.45695   0.50000   0.63284   0.00000  Uiso   1.00
Co17   Co    0.50000   0.45695   0.63284   0.00000  Uiso   1.00
Co18   Co    0.50000   0.54305   0.63284   0.00000  Uiso   1.00
Co19   Co    0.54305   0.50000   0.63284   0.00000  Uiso   1.00
Co20   Co    0.41390   0.37085   0.46303   0.00000  Uiso   1.00
Co21   Co    0.58610   0.37085   0.46303   0.00000  Uiso   1.00
Co22   Co    0.37085   0.58610   0.46303   0.00000  Uiso   1.00
Co23   Co    0.37085   0.41390   0.46303   0.00000  Uiso   1.00
Co24   Co    0.58610   0.62915   0.46303   0.00000  Uiso   1.00
Co25   Co    0.62915   0.58610   0.46303   0.00000  Uiso   1.00
Co26   Co    0.62915   0.41390   0.46303   0.00000  Uiso   1.00
Co27   Co    0.41390   0.62915   0.46303   0.00000  Uiso   1.00
Co28   Co    0.45695   0.58610   0.63284   0.00000  Uiso   1.00
Co29   Co    0.58610   0.45695   0.63284   0.00000  Uiso   1.00
Co30   Co    0.45695   0.41390   0.63284   0.00000  Uiso   1.00
Co31   Co    0.41390   0.45695   0.63284   0.00000  Uiso   1.00
Co32   Co    0.54305   0.58610   0.63284   0.00000  Uiso   1.00
Co33   Co    0.58610   0.54305   0.63284   0.00000  Uiso   1.00
Co34   Co    0.54305   0.41390   0.63284   0.00000  Uiso   1.00
Co35   Co    0.41390   0.54305   0.63284   0.00000  Uiso   1.00
Co36   Co    0.45695   0.32779   0.46303   0.00000  Uiso   1.00
Co37   Co    0.67221   0.45695   0.46303   0.00000  Uiso   1.00
Co38   Co    0.45695   0.67221   0.46303   0.00000  Uiso   1.00
Co39   Co    0.32779   0.45695   0.46303   0.00000  Uiso   1.00
Co40   Co    0.54305   0.32779   0.46303   0.00000  Uiso   1.00
Co41   Co    0.54305   0.67221   0.46303   0.00000  Uiso   1.00
Co42   Co    0.67221   0.54305   0.46303   0.00000  Uiso   1.00
Co43   Co    0.32779   0.54305   0.46303   0.00000  Uiso   1.00
Co44   Co    0.50000   0.37085   0.63284   0.00000  Uiso   1.00
Co45   Co    0.37085   0.50000   0.63284   0.00000  Uiso   1.00
Co46   Co    0.62915   0.50000   0.63284   0.00000  Uiso   1.00
Co47   Co    0.50000   0.62915   0.63284   0.00000  Uiso   1.00
Co48   Co    0.41390   0.37085   0.63284   0.00000  Uiso   1.00
Co49   Co    0.58610   0.37085   0.63284   0.00000  Uiso   1.00
Co50   Co    0.37085   0.58610   0.63284   0.00000  Uiso   1.00
Co51   Co    0.37085   0.41390   0.63284   0.00000  Uiso   1.00
Co52   Co    0.41390   0.62915   0.63284   0.00000  Uiso   1.00
Co53   Co    0.62915   0.58610   0.63284   0.00000  Uiso   1.00
Co54   Co    0.58610   0.62915   0.63284   0.00000  Uiso   1.00
Co55   Co    0.62915   0.41390   0.63284   0.00000  Uiso   1.00
Co56   Co    0.45695   0.50000   0.29321   0.00000  Uiso   1.00
Co57   Co    0.50000   0.45695   0.29321   0.00000  Uiso   1.00
Co58   Co    0.54305   0.50000   0.29321   0.00000  Uiso   1.00
Co59   Co    0.50000   0.54305   0.29321   0.00000  Uiso   1.00
Co60   Co    0.50000   0.28474   0.46303   0.00000  Uiso   1.00
Co61   Co    0.28474   0.50000   0.46303   0.00000  Uiso   1.00
Co62   Co    0.37085   0.32779   0.46303   0.00000  Uiso   1.00
Co63   Co    0.32779   0.37085   0.46303   0.00000  Uiso   1.00
Co64   Co    0.37085   0.67221   0.46303   0.00000  Uiso   1.00
Co65   Co    0.67221   0.37085   0.46303   0.00000  Uiso   1.00
Co66   Co    0.62915   0.67221   0.46303   0.00000  Uiso   1.00
Co67   Co    0.67221   0.62915   0.46303   0.00000  Uiso   1.00
Co68   Co    0.62915   0.32779   0.46303   0.00000  Uiso   1.00
Co69   Co    0.32779   0.62915   0.46303   0.00000  Uiso   1.00
Co70   Co    0.50000   0.71526   0.46303   0.00000  Uiso   1.00
Co71   Co    0.71526   0.50000   0.46303   0.00000  Uiso   1.00
Co72   Co    0.45695   0.67221   0.63284   0.00000  Uiso   1.00
Co73   Co    0.67221   0.45695   0.63284   0.00000  Uiso   1.00
Co74   Co    0.45695   0.32779   0.63284   0.00000  Uiso   1.00
Co75   Co    0.32779   0.45695   0.63284   0.00000  Uiso   1.00
Co76   Co    0.54305   0.67221   0.63284   0.00000  Uiso   1.00
Co77   Co    0.67221   0.54305   0.63284   0.00000  Uiso   1.00
Co78   Co    0.54305   0.32779   0.63284   0.00000  Uiso   1.00
Co79   Co    0.32779   0.54305   0.63284   0.00000  Uiso   1.00
Co80   Co    0.45695   0.41390   0.29321   0.00000  Uiso   1.00
Co81   Co    0.58610   0.45695   0.29321   0.00000  Uiso   1.00
Co82   Co    0.45695   0.58610   0.29321   0.00000  Uiso   1.00
Co83   Co    0.41390   0.45695   0.29321   0.00000  Uiso   1.00
Co84   Co    0.54305   0.58610   0.29321   0.00000  Uiso   1.00
Co85   Co    0.58610   0.54305   0.29321   0.00000  Uiso   1.00
Co86   Co    0.54305   0.41390   0.29321   0.00000  Uiso   1.00
Co87   Co    0.41390   0.54305   0.29321   0.00000  Uiso   1.00
Co88   Co    0.41390   0.28474   0.46303   0.00000  Uiso   1.00
Co89   Co    0.58610   0.28474   0.46303   0.00000  Uiso   1.00
Co90   Co    0.28474   0.58610   0.46303   0.00000  Uiso   1.00
Co91   Co    0.28474   0.41390   0.46303   0.00000  Uiso   1.00
Co92   Co    0.58610   0.71526   0.46303   0.00000  Uiso   1.00
Co93   Co    0.71526   0.41390   0.46303   0.00000  Uiso   1.00
Co94   Co    0.71526   0.58610   0.46303   0.00000  Uiso   1.00
Co95   Co    0.41390   0.71526   0.46303   0.00000  Uiso   1.00
Co96   Co    0.37085   0.50000   0.29321   0.00000  Uiso   1.00
Co97   Co    0.50000   0.37085   0.29321   0.00000  Uiso   1.00
Co98   Co    0.62915   0.50000   0.29321   0.00000  Uiso   1.00
Co99   Co    0.50000   0.62915   0.29321   0.00000  Uiso   1.00
Co100  Co    0.50000   0.28474   0.63284   0.00000  Uiso   1.00
Co101  Co    0.28474   0.50000   0.63284   0.00000  Uiso   1.00
Co102  Co    0.67221   0.37085   0.63284   0.00000  Uiso   1.00
Co103  Co    0.32779   0.37085   0.63284   0.00000  Uiso   1.00
Co104  Co    0.37085   0.67221   0.63284   0.00000  Uiso   1.00
Co105  Co    0.37085   0.32779   0.63284   0.00000  Uiso   1.00
Co106  Co    0.62915   0.67221   0.63284   0.00000  Uiso   1.00
Co107  Co    0.67221   0.62915   0.63284   0.00000  Uiso   1.00
Co108  Co    0.32779   0.62915   0.63284   0.00000  Uiso   1.00
Co109  Co    0.62915   0.32779   0.63284   0.00000  Uiso   1.00
Co110  Co    0.71526   0.50000   0.63284   0.00000  Uiso   1.00
Co111  Co    0.50000   0.71526   0.63284   0.00000  Uiso   1.00
Co112  Co    0.41390   0.37085   0.29321   0.00000  Uiso   1.00
Co113  Co    0.58610   0.37085   0.29321   0.00000  Uiso   1.00
Co114  Co    0.37085   0.58610   0.29321   0.00000  Uiso   1.00
Co115  Co    0.37085   0.41390   0.29321   0.00000  Uiso   1.00
Co116  Co    0.58610   0.62915   0.29321   0.00000  Uiso   1.00
Co117  Co    0.62915   0.58610   0.29321   0.00000  Uiso   1.00
Co118  Co    0.62915   0.41390   0.29321   0.00000  Uiso   1.00
Co119  Co    0.41390   0.62915   0.29321   0.00000  Uiso   1.00
Co120  Co    0.45695   0.24169   0.46303   0.00000  Uiso   1.00
Co121  Co    0.75831   0.45695   0.46303   0.00000  Uiso   1.00
Co122  Co    0.45695   0.75831   0.46303   0.00000  Uiso   1.00
Co123  Co    0.24169   0.45695   0.46303   0.00000  Uiso   1.00
Co124  Co    0.54305   0.24169   0.46303   0.00000  Uiso   1.00
Co125  Co    0.54305   0.75831   0.46303   0.00000  Uiso   1.00
Co126  Co    0.24169   0.54305   0.46303   0.00000  Uiso   1.00
Co127  Co    0.75831   0.54305   0.46303   0.00000  Uiso   1.00
Co128  Co    0.41390   0.28474   0.63284   0.00000  Uiso   1.00
Co129  Co    0.58610   0.28474   0.63284   0.00000  Uiso   1.00
Co130  Co    0.28474   0.58610   0.63284   0.00000  Uiso   1.00
Co131  Co    0.28474   0.41390   0.63284   0.00000  Uiso   1.00
Co132  Co    0.71526   0.58610   0.63284   0.00000  Uiso   1.00
Co133  Co    0.41390   0.71526   0.63284   0.00000  Uiso   1.00
Co134  Co    0.71526   0.41390   0.63284   0.00000  Uiso   1.00
Co135  Co    0.58610   0.71526   0.63284   0.00000  Uiso   1.00
Co136  Co    0.45695   0.67221   0.29321   0.00000  Uiso   1.00
Co137  Co    0.67221   0.45695   0.29321   0.00000  Uiso   1.00
Co138  Co    0.45695   0.32779   0.29321   0.00000  Uiso   1.00
Co139  Co    0.32779   0.45695   0.29321   0.00000  Uiso   1.00
Co140  Co    0.67221   0.54305   0.29321   0.00000  Uiso   1.00
Co141  Co    0.54305   0.67221   0.29321   0.00000  Uiso   1.00
Co142  Co    0.54305   0.32779   0.29321   0.00000  Uiso   1.00
Co143  Co    0.32779   0.54305   0.29321   0.00000  Uiso   1.00
Co144  Co    0.67221   0.28474   0.46303   0.00000  Uiso   1.00
Co145  Co    0.32779   0.28474   0.46303   0.00000  Uiso   1.00
Co146  Co    0.28474   0.32779   0.46303   0.00000  Uiso   1.00
Co147  Co    0.28474   0.67221   0.46303   0.00000  Uiso   1.00
Co148  Co    0.67221   0.71526   0.46303   0.00000  Uiso   1.00
Co149  Co    0.71526   0.67221   0.46303   0.00000  Uiso   1.00
Co150  Co    0.32779   0.71526   0.46303   0.00000  Uiso   1.00
Co151  Co    0.71526   0.32779   0.46303   0.00000  Uiso   1.00
Co152  Co    0.37085   0.24169   0.46303   0.00000  Uiso   1.00
Co153  Co    0.24169   0.37085   0.46303   0.00000  Uiso   1.00
Co154  Co    0.75831   0.37085   0.46303   0.00000  Uiso   1.00
Co155  Co    0.37085   0.75831   0.46303   0.00000  Uiso   1.00
Co156  Co    0.62915   0.75831   0.46303   0.00000  Uiso   1.00
Co157  Co    0.62915   0.24169   0.46303   0.00000  Uiso   1.00
Co158  Co    0.75831   0.62915   0.46303   0.00000  Uiso   1.00
Co159  Co    0.24169   0.62915   0.46303   0.00000  Uiso   1.00
Co160  Co    0.45695   0.24169   0.63284   0.00000  Uiso   1.00
Co161  Co    0.75831   0.45695   0.63284   0.00000  Uiso   1.00
Co162  Co    0.45695   0.75831   0.63284   0.00000  Uiso   1.00
Co163  Co    0.24169   0.45695   0.63284   0.00000  Uiso   1.00
Co164  Co    0.54305   0.24169   0.63284   0.00000  Uiso   1.00
Co165  Co    0.24169   0.54305   0.63284   0.00000  Uiso   1.00
Co166  Co    0.54305   0.75831   0.63284   0.00000  Uiso   1.00
Co167  Co    0.75831   0.54305   0.63284   0.00000  Uiso   1.00
Co168  Co    0.50000   0.28474   0.29321   0.00000  Uiso   1.00
Co169  Co    0.28474   0.50000   0.29321   0.00000  Uiso   1.00
Co170  Co    0.67221   0.37085   0.29321   0.00000  Uiso   1.00
Co171  Co    0.37085   0.67221   0.29321   0.00000  Uiso   1.00
Co172  Co    0.32779   0.37085   0.29321   0.00000  Uiso   1.00
Co173  Co    0.37085   0.32779   0.29321   0.00000  Uiso   1.00
Co174  Co    0.67221   0.62915   0.29321   0.00000  Uiso   1.00
Co175  Co    0.62915   0.67221   0.29321   0.00000  Uiso   1.00
Co176  Co    0.62915   0.32779   0.29321   0.00000  Uiso   1.00
Co177  Co    0.32779   0.62915   0.29321   0.00000  Uiso   1.00
Co178  Co    0.50000   0.71526   0.29321   0.00000  Uiso   1.00
Co179  Co    0.71526   0.50000   0.29321   0.00000  Uiso   1.00
Co180  Co    0.50000   0.19864   0.46303   0.00000  Uiso   1.00
Co181  Co    0.19864   0.50000   0.46303   0.00000  Uiso   1.00
Co182  Co    0.80136   0.50000   0.46303   0.00000  Uiso   1.00
Co183  Co    0.50000   0.80136   0.46303   0.00000  Uiso   1.00
Co184  Co    0.45695   0.50000   0.80266   0.00000  Uiso   1.00
Co185  Co    0.50000   0.45695   0.80266   0.00000  Uiso   1.00
Co186  Co    0.50000   0.54305   0.80266   0.00000  Uiso   1.00
Co187  Co    0.54305   0.50000   0.80266   0.00000  Uiso   1.00
Co188  Co    0.32779   0.28474   0.63284   0.00000  Uiso   1.00
Co189  Co    0.67221   0.28474   0.63284   0.00000  Uiso   1.00
Co190  Co    0.28474   0.32779   0.63284   0.00000  Uiso   1.00
Co191  Co    0.28474   0.67221   0.63284   0.00000  Uiso   1.00
Co192  Co    0.67221   0.71526   0.63284   0.00000  Uiso   1.00
Co193  Co    0.32779   0.71526   0.63284   0.00000  Uiso   1.00
Co194  Co    0.71526   0.67221   0.63284   0.00000  Uiso   1.00
Co195  Co    0.71526   0.32779   0.63284   0.00000  Uiso   1.00
Co196  Co    0.58610   0.28474   0.29321   0.00000  Uiso   1.00
Co197  Co    0.41390   0.28474   0.29321   0.00000  Uiso   1.00
Co198  Co    0.28474   0.41390   0.29321   0.00000  Uiso   1.00
Co199  Co    0.28474   0.58610   0.29321   0.00000  Uiso   1.00
Co200  Co    0.58610   0.71526   0.29321   0.00000  Uiso   1.00
Co201  Co    0.71526   0.41390   0.29321   0.00000  Uiso   1.00
Co202  Co    0.71526   0.58610   0.29321   0.00000  Uiso   1.00
Co203  Co    0.41390   0.71526   0.29321   0.00000  Uiso   1.00
Co204  Co    0.19864   0.41390   0.46303   0.00000  Uiso   1.00
Co205  Co    0.41390   0.19864   0.46303   0.00000  Uiso   1.00
Co206  Co    0.58610   0.19864   0.46303   0.00000  Uiso   1.00
Co207  Co    0.19864   0.58610   0.46303   0.00000  Uiso   1.00
Co208  Co    0.58610   0.80136   0.46303   0.00000  Uiso   1.00
Co209  Co    0.41390   0.80136   0.46303   0.00000  Uiso   1.00
Co210  Co    0.80136   0.58610   0.46303   0.00000  Uiso   1.00
Co211  Co    0.80136   0.41390   0.46303   0.00000  Uiso   1.00
Co212  Co    0.45695   0.58610   0.80266   0.00000  Uiso   1.00
Co213  Co    0.45695   0.41390   0.80266   0.00000  Uiso   1.00
Co214  Co    0.58610   0.45695   0.80266   0.00000  Uiso   1.00
Co215  Co    0.41390   0.45695   0.80266   0.00000  Uiso   1.00
Co216  Co    0.54305   0.41390   0.80266   0.00000  Uiso   1.00
Co217  Co    0.58610   0.54305   0.80266   0.00000  Uiso   1.00
Co218  Co    0.54305   0.58610   0.80266   0.00000  Uiso   1.00
Co219  Co    0.41390   0.54305   0.80266   0.00000  Uiso   1.00
Co220  Co    0.37085   0.24169   0.63284   0.00000  Uiso   1.00
Co221  Co    0.75831   0.37085   0.63284   0.00000  Uiso   1.00
Co222  Co    0.37085   0.75831   0.63284   0.00000  Uiso   1.00
Co223  Co    0.24169   0.37085   0.63284   0.00000  Uiso   1.00
Co224  Co    0.62915   0.24169   0.63284   0.00000  Uiso   1.00
Co225  Co    0.62915   0.75831   0.63284   0.00000  Uiso   1.00
Co226  Co    0.24169   0.62915   0.63284   0.00000  Uiso   1.00
Co227  Co    0.75831   0.62915   0.63284   0.00000  Uiso   1.00
Co228  Co    0.50000   0.37085   0.80266   0.00000  Uiso   1.00
Co229  Co    0.37085   0.50000   0.80266   0.00000  Uiso   1.00
Co230  Co    0.62915   0.50000   0.80266   0.00000  Uiso   1.00
Co231  Co    0.50000   0.62915   0.80266   0.00000  Uiso   1.00
Co232  Co    0.50000   0.19864   0.63284   0.00000  Uiso   1.00
Co233  Co    0.19864   0.50000   0.63284   0.00000  Uiso   1.00
Co234  Co    0.50000   0.80136   0.63284   0.00000  Uiso   1.00
Co235  Co    0.80136   0.50000   0.63284   0.00000  Uiso   1.00
Pt236  Pt    0.50000   0.50000   0.50178   0.00000  Uiso   1.00
Pt237  Pt    0.45695   0.45695   0.50178   0.00000  Uiso   1.00
Pt238  Pt    0.54305   0.45695   0.50178   0.00000  Uiso   1.00
Pt239  Pt    0.45695   0.54305   0.50178   0.00000  Uiso   1.00
Pt240  Pt    0.54305   0.54305   0.50178   0.00000  Uiso   1.00
Pt241  Pt    0.50000   0.45695   0.54793   0.00000  Uiso   1.00
Pt242  Pt    0.45695   0.50000   0.54793   0.00000  Uiso   1.00
Pt243  Pt    0.54305   0.50000   0.54793   0.00000  Uiso   1.00
Pt244  Pt    0.50000   0.54305   0.54793   0.00000  Uiso   1.00
Pt245  Pt    0.50000   0.50000   0.42428   0.00000  Uiso   1.00
Pt246  Pt    0.50000   0.41390   0.50178   0.00000  Uiso   1.00
Pt247  Pt    0.50000   0.58610   0.50178   0.00000  Uiso   1.00
Pt248  Pt    0.58610   0.50000   0.50178   0.00000  Uiso   1.00
Pt249  Pt    0.41390   0.50000   0.50178   0.00000  Uiso   1.00
Pt250  Pt    0.50000   0.50000   0.59409   0.00000  Uiso   1.00
Pt251  Pt    0.45695   0.45695   0.42428   0.00000  Uiso   1.00
Pt252  Pt    0.54305   0.45695   0.42428   0.00000  Uiso   1.00
Pt253  Pt    0.45695   0.54305   0.42428   0.00000  Uiso   1.00
Pt254  Pt    0.54305   0.54305   0.42428   0.00000  Uiso   1.00
Pt255  Pt    0.45695   0.58610   0.54793   0.00000  Uiso   1.00
Pt256  Pt    0.45695   0.41390   0.54793   0.00000  Uiso   1.00
Pt257  Pt    0.58610   0.45695   0.54793   0.00000  Uiso   1.00
Pt258  Pt    0.41390   0.45695   0.54793   0.00000  Uiso   1.00
Pt259  Pt    0.54305   0.58610   0.54793   0.00000  Uiso   1.00
Pt260  Pt    0.58610   0.54305   0.54793   0.00000  Uiso   1.00
Pt261  Pt    0.54305   0.41390   0.54793   0.00000  Uiso   1.00
Pt262  Pt    0.41390   0.54305   0.54793   0.00000  Uiso   1.00
Pt263  Pt    0.45695   0.45695   0.59409   0.00000  Uiso   1.00
Pt264  Pt    0.45695   0.54305   0.59409   0.00000  Uiso   1.00
Pt265  Pt    0.54305   0.45695   0.59409   0.00000  Uiso   1.00
Pt266  Pt    0.54305   0.54305   0.59409   0.00000  Uiso   1.00
Pt267  Pt    0.58610   0.50000   0.42428   0.00000  Uiso   1.00
Pt268  Pt    0.50000   0.58610   0.42428   0.00000  Uiso   1.00
Pt269  Pt    0.50000   0.41390   0.42428   0.00000  Uiso   1.00
Pt270  Pt    0.41390   0.50000   0.42428   0.00000  Uiso   1.00
Pt271  Pt    0.58610   0.41390   0.50178   0.00000  Uiso   1.00
Pt272  Pt    0.58610   0.58610   0.50178   0.00000  Uiso   1.00
Pt273  Pt    0.41390   0.58610   0.50178   0.00000  Uiso   1.00
Pt274  Pt    0.41390   0.41390   0.50178   0.00000  Uiso   1.00
Pt275  Pt    0.50000   0.41390   0.59409   0.00000  Uiso   1.00
Pt276  Pt    0.50000   0.58610   0.59409   0.00000  Uiso   1.00
Pt277  Pt    0.58610   0.50000   0.59409   0.00000  Uiso   1.00
Pt278  Pt    0.41390   0.50000   0.59409   0.00000  Uiso   1.00
Pt279  Pt    0.45695   0.50000   0.37812   0.00000  Uiso   1.00
Pt280  Pt    0.50000   0.45695   0.37812   0.00000  Uiso   1.00
Pt281  Pt    0.50000   0.54305   0.37812   0.00000  Uiso   1.00
Pt282  Pt    0.54305   0.50000   0.37812   0.00000  Uiso   1.00
Pt283  Pt    0.45695   0.37085   0.50178   0.00000  Uiso   1.00
Pt284  Pt    0.37085   0.45695   0.50178   0.00000  Uiso   1.00
Pt285  Pt    0.54305   0.37085   0.50178   0.00000  Uiso   1.00
Pt286  Pt    0.37085   0.54305   0.50178   0.00000  Uiso   1.00
Pt287  Pt    0.62915   0.45695   0.50178   0.00000  Uiso   1.00
Pt288  Pt    0.45695   0.62915   0.50178   0.00000  Uiso   1.00
Pt289  Pt    0.62915   0.54305   0.50178   0.00000  Uiso   1.00
Pt290  Pt    0.54305   0.62915   0.50178   0.00000  Uiso   1.00
Pt291  Pt    0.50000   0.37085   0.54793   0.00000  Uiso   1.00
Pt292  Pt    0.37085   0.50000   0.54793   0.00000  Uiso   1.00
Pt293  Pt    0.62915   0.50000   0.54793   0.00000  Uiso   1.00
Pt294  Pt    0.50000   0.62915   0.54793   0.00000  Uiso   1.00
Pt295  Pt    0.58610   0.41390   0.42428   0.00000  Uiso   1.00
Pt296  Pt    0.58610   0.58610   0.42428   0.00000  Uiso   1.00
Pt297  Pt    0.41390   0.58610   0.42428   0.00000  Uiso   1.00
Pt298  Pt    0.41390   0.41390   0.42428   0.00000  Uiso   1.00
Pt299  Pt    0.58610   0.58610   0.59409   0.00000  Uiso   1.00
Pt300  Pt    0.58610   0.41390   0.59409   0.00000  Uiso   1.00
Pt301  Pt    0.41390   0.58610   0.59409   0.00000  Uiso   1.00
Pt302  Pt    0.41390   0.41390   0.59409   0.00000  Uiso   1.00
Pt303  Pt    0.45695   0.37085   0.42428   0.00000  Uiso   1.00
Pt304  Pt    0.37085   0.45695   0.42428   0.00000  Uiso   1.00
Pt305  Pt    0.54305   0.37085   0.42428   0.00000  Uiso   1.00
Pt306  Pt    0.37085   0.54305   0.42428   0.00000  Uiso   1.00
Pt307  Pt    0.62915   0.45695   0.42428   0.00000  Uiso   1.00
Pt308  Pt    0.45695   0.62915   0.42428   0.00000  Uiso   1.00
Pt309  Pt    0.62915   0.54305   0.42428   0.00000  Uiso   1.00
Pt310  Pt    0.54305   0.62915   0.42428   0.00000  Uiso   1.00
Pt311  Pt    0.45695   0.58610   0.37812   0.00000  Uiso   1.00
Pt312  Pt    0.45695   0.41390   0.37812   0.00000  Uiso   1.00
Pt313  Pt    0.58610   0.45695   0.37812   0.00000  Uiso   1.00
Pt314  Pt    0.41390   0.45695   0.37812   0.00000  Uiso   1.00
Pt315  Pt    0.54305   0.58610   0.37812   0.00000  Uiso   1.00
Pt316  Pt    0.58610   0.54305   0.37812   0.00000  Uiso   1.00
Pt317  Pt    0.54305   0.41390   0.37812   0.00000  Uiso   1.00
Pt318  Pt    0.41390   0.54305   0.37812   0.00000  Uiso   1.00
Pt319  Pt    0.58610   0.37085   0.54793   0.00000  Uiso   1.00
Pt320  Pt    0.41390   0.37085   0.54793   0.00000  Uiso   1.00
Pt321  Pt    0.37085   0.58610   0.54793   0.00000  Uiso   1.00
Pt322  Pt    0.37085   0.41390   0.54793   0.00000  Uiso   1.00
Pt323  Pt    0.62915   0.41390   0.54793   0.00000  Uiso   1.00
Pt324  Pt    0.41390   0.62915   0.54793   0.00000  Uiso   1.00
Pt325  Pt    0.58610   0.62915   0.54793   0.00000  Uiso   1.00
Pt326  Pt    0.62915   0.58610   0.54793   0.00000  Uiso   1.00
Pt327  Pt    0.45695   0.37085   0.59409   0.00000  Uiso   1.00
Pt328  Pt    0.37085   0.45695   0.59409   0.00000  Uiso   1.00
Pt329  Pt    0.54305   0.37085   0.59409   0.00000  Uiso   1.00
Pt330  Pt    0.37085   0.54305   0.59409   0.00000  Uiso   1.00
Pt331  Pt    0.62915   0.45695   0.59409   0.00000  Uiso   1.00
Pt332  Pt    0.45695   0.62915   0.59409   0.00000  Uiso   1.00
Pt333  Pt    0.54305   0.62915   0.59409   0.00000  Uiso   1.00
Pt334  Pt    0.62915   0.54305   0.59409   0.00000  Uiso   1.00
Pt335  Pt    0.50000   0.50000   0.67159   0.00000  Uiso   1.00
Pt336  Pt    0.50000   0.50000   0.33196   0.00000  Uiso   1.00
Pt337  Pt    0.50000   0.67221   0.50178   0.00000  Uiso   1.00
Pt338  Pt    0.67221   0.50000   0.50178   0.00000  Uiso   1.00
Pt339  Pt    0.32779   0.50000   0.50178   0.00000  Uiso   1.00
Pt340  Pt    0.50000   0.32779   0.50178   0.00000  Uiso   1.00
Pt341  Pt    0.50000   0.37085   0.37812   0.00000  Uiso   1.00
Pt342  Pt    0.37085   0.50000   0.37812   0.00000  Uiso   1.00
Pt343  Pt    0.62915   0.50000   0.37812   0.00000  Uiso   1.00
Pt344  Pt    0.50000   0.62915   0.37812   0.00000  Uiso   1.00
Pt345  Pt    0.45695   0.45695   0.67159   0.00000  Uiso   1.00
Pt346  Pt    0.45695   0.45695   0.33196   0.00000  Uiso   1.00
Pt347  Pt    0.54305   0.45695   0.67159   0.00000  Uiso   1.00
Pt348  Pt    0.45695   0.54305   0.67159   0.00000  Uiso   1.00
Pt349  Pt    0.45695   0.54305   0.33196   0.00000  Uiso   1.00
Pt350  Pt    0.54305   0.45695   0.33196   0.00000  Uiso   1.00
Pt351  Pt    0.54305   0.54305   0.67159   0.00000  Uiso   1.00
Pt352  Pt    0.54305   0.54305   0.33196   0.00000  Uiso   1.00
Pt353  Pt    0.37085   0.37085   0.50178   0.00000  Uiso   1.00
Pt354  Pt    0.62915   0.37085   0.50178   0.00000  Uiso   1.00
Pt355  Pt    0.37085   0.62915   0.50178   0.00000  Uiso   1.00
Pt356  Pt    0.62915   0.62915   0.50178   0.00000  Uiso   1.00
Pt357  Pt    0.45695   0.67221   0.54793   0.00000  Uiso   1.00
Pt358  Pt    0.67221   0.45695   0.54793   0.00000  Uiso   1.00
Pt359  Pt    0.45695   0.32779   0.54793   0.00000  Uiso   1.00
Pt360  Pt    0.32779   0.45695   0.54793   0.00000  Uiso   1.00
Pt361  Pt    0.32779   0.54305   0.54793   0.00000  Uiso   1.00
Pt362  Pt    0.67221   0.54305   0.54793   0.00000  Uiso   1.00
Pt363  Pt    0.54305   0.32779   0.54793   0.00000  Uiso   1.00
Pt364  Pt    0.54305   0.67221   0.54793   0.00000  Uiso   1.00
Pt365  Pt    0.67221   0.50000   0.42428   0.00000  Uiso   1.00
Pt366  Pt    0.50000   0.67221   0.42428   0.00000  Uiso   1.00
Pt367  Pt    0.50000   0.32779   0.42428   0.00000  Uiso   1.00
Pt368  Pt    0.32779   0.50000   0.42428   0.00000  Uiso   1.00
Pt369  Pt    0.58610   0.50000   0.67159   0.00000  Uiso   1.00
Pt370  Pt    0.41390   0.50000   0.67159   0.00000  Uiso   1.00
Pt371  Pt    0.50000   0.58610   0.67159   0.00000  Uiso   1.00
Pt372  Pt    0.50000   0.41390   0.67159   0.00000  Uiso   1.00
Pt373  Pt    0.50000   0.58610   0.33196   0.00000  Uiso   1.00
Pt374  Pt    0.58610   0.50000   0.33196   0.00000  Uiso   1.00
Pt375  Pt    0.50000   0.41390   0.33196   0.00000  Uiso   1.00
Pt376  Pt    0.41390   0.50000   0.33196   0.00000  Uiso   1.00
Pt377  Pt    0.67221   0.41390   0.50178   0.00000  Uiso   1.00
Pt378  Pt    0.41390   0.67221   0.50178   0.00000  Uiso   1.00
Pt379  Pt    0.58610   0.67221   0.50178   0.00000  Uiso   1.00
Pt380  Pt    0.67221   0.58610   0.50178   0.00000  Uiso   1.00
Pt381  Pt    0.32779   0.58610   0.50178   0.00000  Uiso   1.00
Pt382  Pt    0.58610   0.32779   0.50178   0.00000  Uiso   1.00
Pt383  Pt    0.41390   0.32779   0.50178   0.00000  Uiso   1.00
Pt384  Pt    0.32779   0.41390   0.50178   0.00000  Uiso   1.00
Pt385  Pt    0.50000   0.32779   0.59409   0.00000  Uiso   1.00
Pt386  Pt    0.50000   0.67221   0.59409   0.00000  Uiso   1.00
Pt387  Pt    0.67221   0.50000   0.59409   0.00000  Uiso   1.00
Pt388  Pt    0.32779   0.50000   0.59409   0.00000  Uiso   1.00
Pt389  Pt    0.37085   0.37085   0.42428   0.00000  Uiso   1.00
Pt390  Pt    0.62915   0.37085   0.42428   0.00000  Uiso   1.00
Pt391  Pt    0.37085   0.62915   0.42428   0.00000  Uiso   1.00
Pt392  Pt    0.62915   0.62915   0.42428   0.00000  Uiso   1.00
Pt393  Pt    0.41390   0.37085   0.37812   0.00000  Uiso   1.00
Pt394  Pt    0.58610   0.37085   0.37812   0.00000  Uiso   1.00
Pt395  Pt    0.37085   0.58610   0.37812   0.00000  Uiso   1.00
Pt396  Pt    0.37085   0.41390   0.37812   0.00000  Uiso   1.00
Pt397  Pt    0.62915   0.41390   0.37812   0.00000  Uiso   1.00
Pt398  Pt    0.41390   0.62915   0.37812   0.00000  Uiso   1.00
Pt399  Pt    0.62915   0.58610   0.37812   0.00000  Uiso   1.00
Pt400  Pt    0.58610   0.62915   0.37812   0.00000  Uiso   1.00
Pt401  Pt    0.37085   0.37085   0.59409   0.00000  Uiso   1.00
Pt402  Pt    0.62915   0.37085   0.59409   0.00000  Uiso   1.00
Pt403  Pt    0.37085   0.62915   0.59409   0.00000  Uiso   1.00
Pt404  Pt    0.62915   0.62915   0.59409   0.00000  Uiso   1.00
Pt405  Pt    0.67221   0.41390   0.42428   0.00000  Uiso   1.00
Pt406  Pt    0.58610   0.67221   0.42428   0.00000  Uiso   1.00
Pt407  Pt    0.41390   0.67221   0.42428   0.00000  Uiso   1.00
Pt408  Pt    0.67221   0.58610   0.42428   0.00000  Uiso   1.00
Pt409  Pt    0.32779   0.58610   0.42428   0.00000  Uiso   1.00
Pt410  Pt    0.58610   0.32779   0.42428   0.00000  Uiso   1.00
Pt411  Pt    0.41390   0.32779   0.42428   0.00000  Uiso   1.00
Pt412  Pt    0.32779   0.41390   0.42428   0.00000  Uiso   1.00
Pt413  Pt    0.58610   0.41390   0.67159   0.00000  Uiso   1.00
Pt414  Pt    0.58610   0.58610   0.67159   0.00000  Uiso   1.00
Pt415  Pt    0.41390   0.58610   0.67159   0.00000  Uiso   1.00
Pt416  Pt    0.41390   0.41390   0.67159   0.00000  Uiso   1.00
Pt417  Pt    0.58610   0.41390   0.33196   0.00000  Uiso   1.00
Pt418  Pt    0.58610   0.58610   0.33196   0.00000  Uiso   1.00
Pt419  Pt    0.41390   0.58610   0.33196   0.00000  Uiso   1.00
Pt420  Pt    0.41390   0.41390   0.33196   0.00000  Uiso   1.00
Pt421  Pt    0.41390   0.32779   0.59409   0.00000  Uiso   1.00
Pt422  Pt    0.41390   0.67221   0.59409   0.00000  Uiso   1.00
Pt423  Pt    0.58610   0.67221   0.59409   0.00000  Uiso   1.00
Pt424  Pt    0.32779   0.58610   0.59409   0.00000  Uiso   1.00
Pt425  Pt    0.67221   0.58610   0.59409   0.00000  Uiso   1.00
Pt426  Pt    0.67221   0.41390   0.59409   0.00000  Uiso   1.00
Pt427  Pt    0.58610   0.32779   0.59409   0.00000  Uiso   1.00
Pt428  Pt    0.32779   0.41390   0.59409   0.00000  Uiso   1.00
Pt429  Pt    0.67221   0.45695   0.37812   0.00000  Uiso   1.00
Pt430  Pt    0.45695   0.67221   0.37812   0.00000  Uiso   1.00
Pt431  Pt    0.45695   0.32779   0.37812   0.00000  Uiso   1.00
Pt432  Pt    0.32779   0.45695   0.37812   0.00000  Uiso   1.00
Pt433  Pt    0.67221   0.54305   0.37812   0.00000  Uiso   1.00
Pt434  Pt    0.54305   0.67221   0.37812   0.00000  Uiso   1.00
Pt435  Pt    0.54305   0.32779   0.37812   0.00000  Uiso   1.00
Pt436  Pt    0.32779   0.54305   0.37812   0.00000  Uiso   1.00
Pt437  Pt    0.45695   0.37085   0.67159   0.00000  Uiso   1.00
Pt438  Pt    0.37085   0.45695   0.67159   0.00000  Uiso   1.00
Pt439  Pt    0.45695   0.37085   0.33196   0.00000  Uiso   1.00
Pt440  Pt    0.37085   0.45695   0.33196   0.00000  Uiso   1.00
Pt441  Pt    0.37085   0.54305   0.67159   0.00000  Uiso   1.00
Pt442  Pt    0.54305   0.37085   0.67159   0.00000  Uiso   1.00
Pt443  Pt    0.54305   0.37085   0.33196   0.00000  Uiso   1.00
Pt444  Pt    0.37085   0.54305   0.33196   0.00000  Uiso   1.00
Pt445  Pt    0.62915   0.45695   0.67159   0.00000  Uiso   1.00
Pt446  Pt    0.45695   0.62915   0.67159   0.00000  Uiso   1.00
Pt447  Pt    0.45695   0.62915   0.33196   0.00000  Uiso   1.00
Pt448  Pt    0.62915   0.45695   0.33196   0.00000  Uiso   1.00
Pt449  Pt    0.54305   0.62915   0.67159   0.00000  Uiso   1.00
Pt450  Pt    0.62915   0.54305   0.67159   0.00000  Uiso   1.00
Pt451  Pt    0.62915   0.54305   0.33196   0.00000  Uiso   1.00
Pt452  Pt    0.54305   0.62915   0.33196   0.00000  Uiso   1.00
Pt453  Pt    0.45695   0.28474   0.50178   0.00000  Uiso   1.00
Pt454  Pt    0.28474   0.45695   0.50178   0.00000  Uiso   1.00
Pt455  Pt    0.54305   0.28474   0.50178   0.00000  Uiso   1.00
Pt456  Pt    0.28474   0.54305   0.50178   0.00000  Uiso   1.00
Pt457  Pt    0.45695   0.71526   0.50178   0.00000  Uiso   1.00
Pt458  Pt    0.71526   0.45695   0.50178   0.00000  Uiso   1.00
Pt459  Pt    0.71526   0.54305   0.50178   0.00000  Uiso   1.00
Pt460  Pt    0.54305   0.71526   0.50178   0.00000  Uiso   1.00
Pt461  Pt    0.50000   0.28474   0.54793   0.00000  Uiso   1.00
Pt462  Pt    0.28474   0.50000   0.54793   0.00000  Uiso   1.00
Pt463  Pt    0.67221   0.37085   0.54793   0.00000  Uiso   1.00
Pt464  Pt    0.37085   0.32779   0.54793   0.00000  Uiso   1.00
Pt465  Pt    0.37085   0.67221   0.54793   0.00000  Uiso   1.00
Pt466  Pt    0.32779   0.37085   0.54793   0.00000  Uiso   1.00
Pt467  Pt    0.62915   0.32779   0.54793   0.00000  Uiso   1.00
Pt468  Pt    0.62915   0.67221   0.54793   0.00000  Uiso   1.00
Pt469  Pt    0.67221   0.62915   0.54793   0.00000  Uiso   1.00
Pt470  Pt    0.32779   0.62915   0.54793   0.00000  Uiso   1.00
Pt471  Pt    0.71526   0.50000   0.54793   0.00000  Uiso   1.00
Pt472  Pt    0.50000   0.71526   0.54793   0.00000  Uiso   1.00
Pt473  Pt    0.50000   0.45695   0.71775   0.00000  Uiso   1.00
Pt474  Pt    0.45695   0.50000   0.71775   0.00000  Uiso   1.00
Pt475  Pt    0.54305   0.50000   0.71775   0.00000  Uiso   1.00
Pt476  Pt    0.50000   0.54305   0.71775   0.00000  Uiso   1.00
Pt477  Pt    0.45695   0.28474   0.42428   0.00000  Uiso   1.00
Pt478  Pt    0.28474   0.45695   0.42428   0.00000  Uiso   1.00
Pt479  Pt    0.54305   0.28474   0.42428   0.00000  Uiso   1.00
Pt480  Pt    0.28474   0.54305   0.42428   0.00000  Uiso   1.00
Pt481  Pt    0.71526   0.45695   0.42428   0.00000  Uiso   1.00
Pt482  Pt    0.45695   0.71526   0.42428   0.00000  Uiso   1.00
Pt483  Pt    0.54305   0.71526   0.42428   0.00000  Uiso   1.00
Pt484  Pt    0.71526   0.54305   0.42428   0.00000  Uiso   1.00
Pt485  Pt    0.41390   0.28474   0.54793   0.00000  Uiso   1.00
Pt486  Pt    0.58610   0.28474   0.54793   0.00000  Uiso   1.00
Pt487  Pt    0.28474   0.58610   0.54793   0.00000  Uiso   1.00
Pt488  Pt    0.28474   0.41390   0.54793   0.00000  Uiso   1.00
Pt489  Pt    0.71526   0.58610   0.54793   0.00000  Uiso   1.00
Pt490  Pt    0.41390   0.71526   0.54793   0.00000  Uiso   1.00
Pt491  Pt    0.58610   0.71526   0.54793   0.00000  Uiso   1.00
Pt492  Pt    0.71526   0.41390   0.54793   0.00000  Uiso   1.00
Pt493  Pt    0.58610   0.45695   0.71775   0.00000  Uiso   1.00
Pt494  Pt    0.45695   0.41390   0.71775   0.00000  Uiso   1.00
Pt495  Pt    0.45695   0.58610   0.71775   0.00000  Uiso   1.00
Pt496  Pt    0.41390   0.45695   0.71775   0.00000  Uiso   1.00
Pt497  Pt    0.54305   0.41390   0.71775   0.00000  Uiso   1.00
Pt498  Pt    0.58610   0.54305   0.71775   0.00000  Uiso   1.00
Pt499  Pt    0.54305   0.58610   0.71775   0.00000  Uiso   1.00
Pt500  Pt    0.41390   0.54305   0.71775   0.00000  Uiso   1.00
Pt501  Pt    0.45695   0.28474   0.59409   0.00000  Uiso   1.00
Pt502  Pt    0.28474   0.45695   0.59409   0.00000  Uiso   1.00
Pt503  Pt    0.54305   0.28474   0.59409   0.00000  Uiso   1.00
Pt504  Pt    0.28474   0.54305   0.59409   0.00000  Uiso   1.00
Pt505  Pt    0.45695   0.71526   0.59409   0.00000  Uiso   1.00
Pt506  Pt    0.71526   0.45695   0.59409   0.00000  Uiso   1.00
Pt507  Pt    0.54305   0.71526   0.59409   0.00000  Uiso   1.00
Pt508  Pt    0.71526   0.54305   0.59409   0.00000  Uiso   1.00
Pt509  Pt    0.50000   0.67221   0.67159   0.00000  Uiso   1.00
Pt510  Pt    0.67221   0.50000   0.67159   0.00000  Uiso   1.00
Pt511  Pt    0.50000   0.32779   0.67159   0.00000  Uiso   1.00
Pt512  Pt    0.32779   0.50000   0.67159   0.00000  Uiso   1.00
Pt513  Pt    0.50000   0.67221   0.33196   0.00000  Uiso   1.00
Pt514  Pt    0.67221   0.50000   0.33196   0.00000  Uiso   1.00
Pt515  Pt    0.50000   0.32779   0.33196   0.00000  Uiso   1.00
Pt516  Pt    0.32779   0.50000   0.33196   0.00000  Uiso   1.00
Pt517  Pt    0.67221   0.67221   0.50178   0.00000  Uiso   1.00
Pt518  Pt    0.67221   0.32779   0.50178   0.00000  Uiso   1.00
Pt519  Pt    0.32779   0.67221   0.50178   0.00000  Uiso   1.00
Pt520  Pt    0.32779   0.32779   0.50178   0.00000  Uiso   1.00
Pt521  Pt    0.50000   0.50000   0.25446   0.00000  Uiso   1.00
Pt522  Pt    0.50000   0.28474   0.37812   0.00000  Uiso   1.00
Pt523  Pt    0.28474   0.50000   0.37812   0.00000  Uiso   1.00
Pt524  Pt    0.67221   0.37085   0.37812   0.00000  Uiso   1.00
Pt525  Pt    0.37085   0.32779   0.37812   0.00000  Uiso   1.00
Pt526  Pt    0.37085   0.67221   0.37812   0.00000  Uiso   1.00
Pt527  Pt    0.32779   0.37085   0.37812   0.00000  Uiso   1.00
Pt528  Pt    0.62915   0.67221   0.37812   0.00000  Uiso   1.00
Pt529  Pt    0.67221   0.62915   0.37812   0.00000  Uiso   1.00
Pt530  Pt    0.62915   0.32779   0.37812   0.00000  Uiso   1.00
Pt531  Pt    0.32779   0.62915   0.37812   0.00000  Uiso   1.00
Pt532  Pt    0.50000   0.71526   0.37812   0.00000  Uiso   1.00
Pt533  Pt    0.71526   0.50000   0.37812   0.00000  Uiso   1.00
Pt534  Pt    0.37085   0.37085   0.67159   0.00000  Uiso   1.00
Pt535  Pt    0.37085   0.37085   0.33196   0.00000  Uiso   1.00
Pt536  Pt    0.62915   0.37085   0.67159   0.00000  Uiso   1.00
Pt537  Pt    0.37085   0.62915   0.67159   0.00000  Uiso   1.00
Pt538  Pt    0.62915   0.37085   0.33196   0.00000  Uiso   1.00
Pt539  Pt    0.37085   0.62915   0.33196   0.00000  Uiso   1.00
Pt540  Pt    0.62915   0.62915   0.67159   0.00000  Uiso   1.00
Pt541  Pt    0.62915   0.62915   0.33196   0.00000  Uiso   1.00
Pt542  Pt    0.37085   0.28474   0.50178   0.00000  Uiso   1.00
Pt543  Pt    0.28474   0.37085   0.50178   0.00000  Uiso   1.00
Pt544  Pt    0.62915   0.28474   0.50178   0.00000  Uiso   1.00
Pt545  Pt    0.28474   0.62915   0.50178   0.00000  Uiso   1.00
Pt546  Pt    0.37085   0.71526   0.50178   0.00000  Uiso   1.00
Pt547  Pt    0.71526   0.37085   0.50178   0.00000  Uiso   1.00
Pt548  Pt    0.62915   0.71526   0.50178   0.00000  Uiso   1.00
Pt549  Pt    0.71526   0.62915   0.50178   0.00000  Uiso   1.00
Pt550  Pt    0.50000   0.37085   0.71775   0.00000  Uiso   1.00
Pt551  Pt    0.37085   0.50000   0.71775   0.00000  Uiso   1.00
Pt552  Pt    0.50000   0.62915   0.71775   0.00000  Uiso   1.00
Pt553  Pt    0.62915   0.50000   0.71775   0.00000  Uiso   1.00
Pt554  Pt    0.45695   0.45695   0.25446   0.00000  Uiso   1.00
Pt555  Pt    0.45695   0.54305   0.25446   0.00000  Uiso   1.00
Pt556  Pt    0.54305   0.45695   0.25446   0.00000  Uiso   1.00
Pt557  Pt    0.54305   0.54305   0.25446   0.00000  Uiso   1.00
Pt558  Pt    0.32779   0.67221   0.42428   0.00000  Uiso   1.00
Pt559  Pt    0.32779   0.32779   0.42428   0.00000  Uiso   1.00
Pt560  Pt    0.67221   0.67221   0.42428   0.00000  Uiso   1.00
Pt561  Pt    0.67221   0.32779   0.42428   0.00000  Uiso   1.00
Pt562  Pt    0.58610   0.67221   0.67159   0.00000  Uiso   1.00
Pt563  Pt    0.67221   0.58610   0.67159   0.00000  Uiso   1.00
Pt564  Pt    0.67221   0.41390   0.67159   0.00000  Uiso   1.00
Pt565  Pt    0.41390   0.32779   0.67159   0.00000  Uiso   1.00
Pt566  Pt    0.32779   0.58610   0.67159   0.00000  Uiso   1.00
Pt567  Pt    0.58610   0.32779   0.67159   0.00000  Uiso   1.00
Pt568  Pt    0.32779   0.41390   0.67159   0.00000  Uiso   1.00
Pt569  Pt    0.41390   0.67221   0.67159   0.00000  Uiso   1.00
Pt570  Pt    0.58610   0.67221   0.33196   0.00000  Uiso   1.00
Pt571  Pt    0.67221   0.41390   0.33196   0.00000  Uiso   1.00
Pt572  Pt    0.67221   0.58610   0.33196   0.00000  Uiso   1.00
Pt573  Pt    0.58610   0.32779   0.33196   0.00000  Uiso   1.00
Pt574  Pt    0.41390   0.32779   0.33196   0.00000  Uiso   1.00
Pt575  Pt    0.32779   0.41390   0.33196   0.00000  Uiso   1.00
Pt576  Pt    0.41390   0.67221   0.33196   0.00000  Uiso   1.00
Pt577  Pt    0.32779   0.58610   0.33196   0.00000  Uiso   1.00
Pt578  Pt    0.50000   0.24169   0.50178   0.00000  Uiso   1.00
Pt579  Pt    0.24169   0.50000   0.50178   0.00000  Uiso   1.00
Pt580  Pt    0.50000   0.75831   0.50178   0.00000  Uiso   1.00
Pt581  Pt    0.75831   0.50000   0.50178   0.00000  Uiso   1.00
Pt582  Pt    0.32779   0.67221   0.59409   0.00000  Uiso   1.00
Pt583  Pt    0.67221   0.67221   0.59409   0.00000  Uiso   1.00
Pt584  Pt    0.67221   0.32779   0.59409   0.00000  Uiso   1.00
Pt585  Pt    0.32779   0.32779   0.59409   0.00000  Uiso   1.00
Pt586  Pt    0.58610   0.50000   0.25446   0.00000  Uiso   1.00
Pt587  Pt    0.50000   0.58610   0.25446   0.00000  Uiso   1.00
Pt588  Pt    0.50000   0.41390   0.25446   0.00000  Uiso   1.00
Pt589  Pt    0.41390   0.50000   0.25446   0.00000  Uiso   1.00
Pt590  Pt    0.50000   0.50000   0.76391   0.00000  Uiso   1.00
Pt591  Pt    0.37085   0.28474   0.42428   0.00000  Uiso   1.00
Pt592  Pt    0.28474   0.37085   0.42428   0.00000  Uiso   1.00
Pt593  Pt    0.62915   0.28474   0.42428   0.00000  Uiso   1.00
Pt594  Pt    0.28474   0.62915   0.42428   0.00000  Uiso   1.00
Pt595  Pt    0.37085   0.71526   0.42428   0.00000  Uiso   1.00
Pt596  Pt    0.71526   0.37085   0.42428   0.00000  Uiso   1.00
Pt597  Pt    0.62915   0.71526   0.42428   0.00000  Uiso   1.00
Pt598  Pt    0.71526   0.62915   0.42428   0.00000  Uiso   1.00
Pt599  Pt    0.58610   0.28474   0.37812   0.00000  Uiso   1.00
Pt600  Pt    0.41390   0.28474   0.37812   0.00000  Uiso   1.00
Pt601  Pt    0.28474   0.58610   0.37812   0.00000  Uiso   1.00
Pt602  Pt    0.28474   0.41390   0.37812   0.00000  Uiso   1.00
Pt603  Pt    0.58610   0.71526   0.37812   0.00000  Uiso   1.00
Pt604  Pt    0.41390   0.71526   0.37812   0.00000  Uiso   1.00
Pt605  Pt    0.71526   0.58610   0.37812   0.00000  Uiso   1.00
Pt606  Pt    0.71526   0.41390   0.37812   0.00000  Uiso   1.00
Pt607  Pt    0.45695   0.24169   0.54793   0.00000  Uiso   1.00
Pt608  Pt    0.24169   0.45695   0.54793   0.00000  Uiso   1.00
Pt609  Pt    0.75831   0.45695   0.54793   0.00000  Uiso   1.00
Pt610  Pt    0.45695   0.75831   0.54793   0.00000  Uiso   1.00
Pt611  Pt    0.54305   0.24169   0.54793   0.00000  Uiso   1.00
Pt612  Pt    0.75831   0.54305   0.54793   0.00000  Uiso   1.00
Pt613  Pt    0.24169   0.54305   0.54793   0.00000  Uiso   1.00
Pt614  Pt    0.54305   0.75831   0.54793   0.00000  Uiso   1.00
Pt615  Pt    0.41390   0.37085   0.71775   0.00000  Uiso   1.00
Pt616  Pt    0.58610   0.37085   0.71775   0.00000  Uiso   1.00
Pt617  Pt    0.37085   0.41390   0.71775   0.00000  Uiso   1.00
Pt618  Pt    0.37085   0.58610   0.71775   0.00000  Uiso   1.00
Pt619  Pt    0.62915   0.58610   0.71775   0.00000  Uiso   1.00
Pt620  Pt    0.41390   0.62915   0.71775   0.00000  Uiso   1.00
Pt621  Pt    0.62915   0.41390   0.71775   0.00000  Uiso   1.00
Pt622  Pt    0.58610   0.62915   0.71775   0.00000  Uiso   1.00
Pt623  Pt    0.28474   0.37085   0.59409   0.00000  Uiso   1.00
Pt624  Pt    0.37085   0.28474   0.59409   0.00000  Uiso   1.00
Pt625  Pt    0.62915   0.28474   0.59409   0.00000  Uiso   1.00
Pt626  Pt    0.28474   0.62915   0.59409   0.00000  Uiso   1.00
Pt627  Pt    0.37085   0.71526   0.59409   0.00000  Uiso   1.00
Pt628  Pt    0.71526   0.37085   0.59409   0.00000  Uiso   1.00
Pt629  Pt    0.62915   0.71526   0.59409   0.00000  Uiso   1.00
Pt630  Pt    0.71526   0.62915   0.59409   0.00000  Uiso   1.00
Pt631  Pt    0.45695   0.45695   0.76391   0.00000  Uiso   1.00
Pt632  Pt    0.45695   0.54305   0.76391   0.00000  Uiso   1.00
Pt633  Pt    0.54305   0.45695   0.76391   0.00000  Uiso   1.00
Pt634  Pt    0.54305   0.54305   0.76391   0.00000  Uiso   1.00
Pt635  Pt    0.50000   0.24169   0.42428   0.00000  Uiso   1.00
Pt636  Pt    0.50000   0.75831   0.42428   0.00000  Uiso   1.00
Pt637  Pt    0.75831   0.50000   0.42428   0.00000  Uiso   1.00
Pt638  Pt    0.24169   0.50000   0.42428   0.00000  Uiso   1.00
Pt639  Pt    0.41390   0.24169   0.50178   0.00000  Uiso   1.00
Pt640  Pt    0.58610   0.24169   0.50178   0.00000  Uiso   1.00
Pt641  Pt    0.58610   0.75831   0.50178   0.00000  Uiso   1.00
Pt642  Pt    0.24169   0.41390   0.50178   0.00000  Uiso   1.00
Pt643  Pt    0.41390   0.75831   0.50178   0.00000  Uiso   1.00
Pt644  Pt    0.75831   0.41390   0.50178   0.00000  Uiso   1.00
Pt645  Pt    0.75831   0.58610   0.50178   0.00000  Uiso   1.00
Pt646  Pt    0.24169   0.58610   0.50178   0.00000  Uiso   1.00
Pt647  Pt    0.50000   0.24169   0.59409   0.00000  Uiso   1.00
Pt648  Pt    0.75831   0.50000   0.59409   0.00000  Uiso   1.00
Pt649  Pt    0.24169   0.50000   0.59409   0.00000  Uiso   1.00
Pt650  Pt    0.50000   0.75831   0.59409   0.00000  Uiso   1.00
Pt651  Pt    0.58610   0.58610   0.25446   0.00000  Uiso   1.00
Pt652  Pt    0.58610   0.41390   0.25446   0.00000  Uiso   1.00
Pt653  Pt    0.41390   0.58610   0.25446   0.00000  Uiso   1.00
Pt654  Pt    0.41390   0.41390   0.25446   0.00000  Uiso   1.00
Pt655  Pt    0.50000   0.58610   0.76391   0.00000  Uiso   1.00
Pt656  Pt    0.50000   0.41390   0.76391   0.00000  Uiso   1.00
Pt657  Pt    0.41390   0.50000   0.76391   0.00000  Uiso   1.00
Pt658  Pt    0.58610   0.50000   0.76391   0.00000  Uiso   1.00
Pt659  Pt    0.45695   0.28474   0.67159   0.00000  Uiso   1.00
Pt660  Pt    0.28474   0.45695   0.67159   0.00000  Uiso   1.00
Pt661  Pt    0.45695   0.28474   0.33196   0.00000  Uiso   1.00
Pt662  Pt    0.28474   0.45695   0.33196   0.00000  Uiso   1.00
Pt663  Pt    0.54305   0.28474   0.67159   0.00000  Uiso   1.00
Pt664  Pt    0.28474   0.54305   0.67159   0.00000  Uiso   1.00
Pt665  Pt    0.54305   0.28474   0.33196   0.00000  Uiso   1.00
Pt666  Pt    0.28474   0.54305   0.33196   0.00000  Uiso   1.00
Pt667  Pt    0.71526   0.45695   0.67159   0.00000  Uiso   1.00
Pt668  Pt    0.45695   0.71526   0.67159   0.00000  Uiso   1.00
Pt669  Pt    0.71526   0.45695   0.33196   0.00000  Uiso   1.00
Pt670  Pt    0.45695   0.71526   0.33196   0.00000  Uiso   1.00
Pt671  Pt    0.54305   0.71526   0.67159   0.00000  Uiso   1.00
Pt672  Pt    0.71526   0.54305   0.67159   0.00000  Uiso   1.00
Pt673  Pt    0.54305   0.71526   0.33196   0.00000  Uiso   1.00
Pt674  Pt    0.71526   0.54305   0.33196   0.00000  Uiso   1.00
Pt675  Pt    0.67221   0.28474   0.54793   0.00000  Uiso   1.00
Pt676  Pt    0.32779   0.28474   0.54793   0.00000  Uiso   1.00
Pt677  Pt    0.28474   0.32779   0.54793   0.00000  Uiso   1.00
Pt678  Pt    0.28474   0.67221   0.54793   0.00000  Uiso   1.00
Pt679  Pt    0.67221   0.71526   0.54793   0.00000  Uiso   1.00
Pt680  Pt    0.71526   0.67221   0.54793   0.00000  Uiso   1.00
Pt681  Pt    0.32779   0.71526   0.54793   0.00000  Uiso   1.00
Pt682  Pt    0.71526   0.32779   0.54793   0.00000  Uiso   1.00
Pt683  Pt    0.45695   0.32779   0.71775   0.00000  Uiso   1.00
Pt684  Pt    0.45695   0.67221   0.71775   0.00000  Uiso   1.00
Pt685  Pt    0.67221   0.45695   0.71775   0.00000  Uiso   1.00
Pt686  Pt    0.32779   0.45695   0.71775   0.00000  Uiso   1.00
Pt687  Pt    0.67221   0.54305   0.71775   0.00000  Uiso   1.00
Pt688  Pt    0.54305   0.32779   0.71775   0.00000  Uiso   1.00
Pt689  Pt    0.32779   0.54305   0.71775   0.00000  Uiso   1.00
Pt690  Pt    0.54305   0.67221   0.71775   0.00000  Uiso   1.00
Pt691  Pt    0.45695   0.37085   0.25446   0.00000  Uiso   1.00
Pt692  Pt    0.37085   0.45695   0.25446   0.00000  Uiso   1.00
Pt693  Pt    0.54305   0.37085   0.25446   0.00000  Uiso   1.00
Pt694  Pt    0.37085   0.54305   0.25446   0.00000  Uiso   1.00
Pt695  Pt    0.62915   0.45695   0.25446   0.00000  Uiso   1.00
Pt696  Pt    0.45695   0.62915   0.25446   0.00000  Uiso   1.00
Pt697  Pt    0.54305   0.62915   0.25446   0.00000  Uiso   1.00
Pt698  Pt    0.62915   0.54305   0.25446   0.00000  Uiso   1.00
Pt699  Pt    0.41390   0.24169   0.42428   0.00000  Uiso   1.00
Pt700  Pt    0.58610   0.24169   0.42428   0.00000  Uiso   1.00
Pt701  Pt    0.58610   0.75831   0.42428   0.00000  Uiso   1.00
Pt702  Pt    0.75831   0.41390   0.42428   0.00000  Uiso   1.00
Pt703  Pt    0.24169   0.41390   0.42428   0.00000  Uiso   1.00
Pt704  Pt    0.75831   0.58610   0.42428   0.00000  Uiso   1.00
Pt705  Pt    0.24169   0.58610   0.42428   0.00000  Uiso   1.00
Pt706  Pt    0.41390   0.75831   0.42428   0.00000  Uiso   1.00
Pt707  Pt    0.41390   0.24169   0.59409   0.00000  Uiso   1.00
Pt708  Pt    0.58610   0.75831   0.59409   0.00000  Uiso   1.00
Pt709  Pt    0.58610   0.24169   0.59409   0.00000  Uiso   1.00
Pt710  Pt    0.24169   0.41390   0.59409   0.00000  Uiso   1.00
Pt711  Pt    0.75831   0.41390   0.59409   0.00000  Uiso   1.00
Pt712  Pt    0.75831   0.58610   0.59409   0.00000  Uiso   1.00
Pt713  Pt    0.41390   0.75831   0.59409   0.00000  Uiso   1.00
Pt714  Pt    0.24169   0.58610   0.59409   0.00000  Uiso   1.00
Pt715  Pt    0.58610   0.58610   0.76391   0.00000  Uiso   1.00
Pt716  Pt    0.58610   0.41390   0.76391   0.00000  Uiso   1.00
Pt717  Pt    0.41390   0.58610   0.76391   0.00000  Uiso   1.00
Pt718  Pt    0.41390   0.41390   0.76391   0.00000  Uiso   1.00
Pt719  Pt    0.45695   0.24169   0.37812   0.00000  Uiso   1.00
Pt720  Pt    0.45695   0.75831   0.37812   0.00000  Uiso   1.00
Pt721  Pt    0.75831   0.45695   0.37812   0.00000  Uiso   1.00
Pt722  Pt    0.24169   0.45695   0.37812   0.00000  Uiso   1.00
Pt723  Pt    0.54305   0.24169   0.37812   0.00000  Uiso   1.00
Pt724  Pt    0.54305   0.75831   0.37812   0.00000  Uiso   1.00
Pt725  Pt    0.24169   0.54305   0.37812   0.00000  Uiso   1.00
Pt726  Pt    0.75831   0.54305   0.37812   0.00000  Uiso   1.00
Pt727  Pt    0.37085   0.24169   0.54793   0.00000  Uiso   1.00
Pt728  Pt    0.24169   0.37085   0.54793   0.00000  Uiso   1.00
Pt729  Pt    0.75831   0.37085   0.54793   0.00000  Uiso   1.00
Pt730  Pt    0.37085   0.75831   0.54793   0.00000  Uiso   1.00
Pt731  Pt    0.62915   0.75831   0.54793   0.00000  Uiso   1.00
Pt732  Pt    0.62915   0.24169   0.54793   0.00000  Uiso   1.00
Pt733  Pt    0.24169   0.62915   0.54793   0.00000  Uiso   1.00
Pt734  Pt    0.75831   0.62915   0.54793   0.00000  Uiso   1.00
Pt735  Pt    0.45695   0.37085   0.76391   0.00000  Uiso   1.00
Pt736  Pt    0.37085   0.45695   0.76391   0.00000  Uiso   1.00
Pt737  Pt    0.54305   0.37085   0.76391   0.00000  Uiso   1.00
Pt738  Pt    0.37085   0.54305   0.76391   0.00000  Uiso   1.00
Pt739  Pt    0.45695   0.62915   0.76391   0.00000  Uiso   1.00
Pt740  Pt    0.62915   0.45695   0.76391   0.00000  Uiso   1.00
Pt741  Pt    0.54305   0.62915   0.76391   0.00000  Uiso   1.00
Pt742  Pt    0.62915   0.54305   0.76391   0.00000  Uiso   1.00
Pt743  Pt    0.50000   0.45695   0.20831   0.00000  Uiso   1.00
Pt744  Pt    0.45695   0.50000   0.20831   0.00000  Uiso   1.00
Pt745  Pt    0.54305   0.50000   0.20831   0.00000  Uiso   1.00
Pt746  Pt    0.50000   0.54305   0.20831   0.00000  Uiso   1.00
Pt747  Pt    0.67221   0.67221   0.67159   0.00000  Uiso   1.00
Pt748  Pt    0.67221   0.32779   0.67159   0.00000  Uiso   1.00
Pt749  Pt    0.32779   0.32779   0.67159   0.00000  Uiso   1.00
Pt750  Pt    0.32779   0.67221   0.67159   0.00000  Uiso   1.00
Pt751  Pt    0.67221   0.67221   0.33196   0.00000  Uiso   1.00
Pt752  Pt    0.32779   0.32779   0.33196   0.00000  Uiso   1.00
Pt753  Pt    0.32779   0.67221   0.33196   0.00000  Uiso   1.00
Pt754  Pt    0.67221   0.32779   0.33196   0.00000  Uiso   1.00
Pt755  Pt    0.67221   0.50000   0.25446   0.00000  Uiso   1.00
Pt756  Pt    0.50000   0.67221   0.25446   0.00000  Uiso   1.00
Pt757  Pt    0.32779   0.50000   0.25446   0.00000  Uiso   1.00
Pt758  Pt    0.50000   0.32779   0.25446   0.00000  Uiso   1.00
Pt759  Pt    0.32779   0.28474   0.37812   0.00000  Uiso   1.00
Pt760  Pt    0.67221   0.28474   0.37812   0.00000  Uiso   1.00
Pt761  Pt    0.28474   0.67221   0.37812   0.00000  Uiso   1.00
Pt762  Pt    0.28474   0.32779   0.37812   0.00000  Uiso   1.00
Pt763  Pt    0.67221   0.71526   0.37812   0.00000  Uiso   1.00
Pt764  Pt    0.71526   0.67221   0.37812   0.00000  Uiso   1.00
Pt765  Pt    0.32779   0.71526   0.37812   0.00000  Uiso   1.00
Pt766  Pt    0.71526   0.32779   0.37812   0.00000  Uiso   1.00
Pt767  Pt    0.37085   0.28474   0.67159   0.00000  Uiso   1.00
Pt768  Pt    0.28474   0.37085   0.67159   0.00000  Uiso   1.00
Pt769  Pt    0.37085   0.28474   0.33196   0.00000  Uiso   1.00
Pt770  Pt    0.28474   0.37085   0.33196   0.00000  Uiso   1.00
Pt771  Pt    0.62915   0.28474   0.67159   0.00000  Uiso   1.00
Pt772  Pt    0.28474   0.62915   0.67159   0.00000  Uiso   1.00
Pt773  Pt    0.62915   0.28474   0.33196   0.00000  Uiso   1.00
Pt774  Pt    0.28474   0.62915   0.33196   0.00000  Uiso   1.00
Pt775  Pt    0.71526   0.37085   0.67159   0.00000  Uiso   1.00
Pt776  Pt    0.37085   0.71526   0.67159   0.00000  Uiso   1.00
Pt777  Pt    0.71526   0.37085   0.33196   0.00000  Uiso   1.00
Pt778  Pt    0.37085   0.71526   0.33196   0.00000  Uiso   1.00
Pt779  Pt    0.62915   0.71526   0.67159   0.00000  Uiso   1.00
Pt780  Pt    0.71526   0.62915   0.67159   0.00000  Uiso   1.00
Pt781  Pt    0.62915   0.71526   0.33196   0.00000  Uiso   1.00
Pt782  Pt    0.71526   0.62915   0.33196   0.00000  Uiso   1.00
Pt783  Pt    0.28474   0.28474   0.50178   0.00000  Uiso   1.00
Pt784  Pt    0.45695   0.19864   0.50178   0.00000  Uiso   1.00
Pt785  Pt    0.19864   0.45695   0.50178   0.00000  Uiso   1.00
Pt786  Pt    0.54305   0.19864   0.50178   0.00000  Uiso   1.00
Pt787  Pt    0.19864   0.54305   0.50178   0.00000  Uiso   1.00
Pt788  Pt    0.71526   0.28474   0.50178   0.00000  Uiso   1.00
Pt789  Pt    0.28474   0.71526   0.50178   0.00000  Uiso   1.00
Pt790  Pt    0.80136   0.45695   0.50178   0.00000  Uiso   1.00
Pt791  Pt    0.45695   0.80136   0.50178   0.00000  Uiso   1.00
Pt792  Pt    0.80136   0.54305   0.50178   0.00000  Uiso   1.00
Pt793  Pt    0.54305   0.80136   0.50178   0.00000  Uiso   1.00
Pt794  Pt    0.71526   0.71526   0.50178   0.00000  Uiso   1.00
Pt795  Pt    0.50000   0.19864   0.54793   0.00000  Uiso   1.00
Pt796  Pt    0.19864   0.50000   0.54793   0.00000  Uiso   1.00
Pt797  Pt    0.80136   0.50000   0.54793   0.00000  Uiso   1.00
Pt798  Pt    0.50000   0.80136   0.54793   0.00000  Uiso   1.00
Pt799  Pt    0.50000   0.28474   0.71775   0.00000  Uiso   1.00
Pt800  Pt    0.28474   0.50000   0.71775   0.00000  Uiso   1.00
Pt801  Pt    0.67221   0.37085   0.71775   0.00000  Uiso   1.00
Pt802  Pt    0.37085   0.67221   0.71775   0.00000  Uiso   1.00
Pt803  Pt    0.32779   0.37085   0.71775   0.00000  Uiso   1.00
Pt804  Pt    0.37085   0.32779   0.71775   0.00000  Uiso   1.00
Pt805  Pt    0.62915   0.67221   0.71775   0.00000  Uiso   1.00
Pt806  Pt    0.67221   0.62915   0.71775   0.00000  Uiso   1.00
Pt807  Pt    0.62915   0.32779   0.71775   0.00000  Uiso   1.00
Pt808  Pt    0.32779   0.62915   0.71775   0.00000  Uiso   1.00
Pt809  Pt    0.50000   0.71526   0.71775   0.00000  Uiso   1.00
Pt810  Pt    0.71526   0.50000   0.71775   0.00000  Uiso   1.00
Pt811  Pt    0.37085   0.37085   0.25446   0.00000  Uiso   1.00
Pt812  Pt    0.62915   0.37085   0.25446   0.00000  Uiso   1.00
Pt813  Pt    0.37085   0.62915   0.25446   0.00000  Uiso   1.00
Pt814  Pt    0.62915   0.62915   0.25446   0.00000  Uiso   1.00
Pt815  Pt    0.41390   0.45695   0.20831   0.00000  Uiso   1.00
Pt816  Pt    0.45695   0.58610   0.20831   0.00000  Uiso   1.00
Pt817  Pt    0.45695   0.41390   0.20831   0.00000  Uiso   1.00
Pt818  Pt    0.58610   0.45695   0.20831   0.00000  Uiso   1.00
Pt819  Pt    0.58610   0.54305   0.20831   0.00000  Uiso   1.00
Pt820  Pt    0.41390   0.54305   0.20831   0.00000  Uiso   1.00
Pt821  Pt    0.54305   0.41390   0.20831   0.00000  Uiso   1.00
Pt822  Pt    0.54305   0.58610   0.20831   0.00000  Uiso   1.00
Pt823  Pt    0.50000   0.24169   0.67159   0.00000  Uiso   1.00
Pt824  Pt    0.24169   0.50000   0.67159   0.00000  Uiso   1.00
Pt825  Pt    0.75831   0.50000   0.67159   0.00000  Uiso   1.00
Pt826  Pt    0.50000   0.75831   0.67159   0.00000  Uiso   1.00
Pt827  Pt    0.50000   0.24169   0.33196   0.00000  Uiso   1.00
Pt828  Pt    0.50000   0.75831   0.33196   0.00000  Uiso   1.00
Pt829  Pt    0.75831   0.50000   0.33196   0.00000  Uiso   1.00
Pt830  Pt    0.24169   0.50000   0.33196   0.00000  Uiso   1.00
Pt831  Pt    0.67221   0.75831   0.50178   0.00000  Uiso   1.00
Pt832  Pt    0.67221   0.24169   0.50178   0.00000  Uiso   1.00
Pt833  Pt    0.32779   0.24169   0.50178   0.00000  Uiso   1.00
Pt834  Pt    0.24169   0.67221   0.50178   0.00000  Uiso   1.00
Pt835  Pt    0.75831   0.67221   0.50178   0.00000  Uiso   1.00
Pt836  Pt    0.24169   0.32779   0.50178   0.00000  Uiso   1.00
Pt837  Pt    0.75831   0.32779   0.50178   0.00000  Uiso   1.00
Pt838  Pt    0.32779   0.75831   0.50178   0.00000  Uiso   1.00
Pt839  Pt    0.58610   0.67221   0.25446   0.00000  Uiso   1.00
Pt840  Pt    0.67221   0.58610   0.25446   0.00000  Uiso   1.00
Pt841  Pt    0.41390   0.67221   0.25446   0.00000  Uiso   1.00
Pt842  Pt    0.67221   0.41390   0.25446   0.00000  Uiso   1.00
Pt843  Pt    0.41390   0.32779   0.25446   0.00000  Uiso   1.00
Pt844  Pt    0.32779   0.41390   0.25446   0.00000  Uiso   1.00
Pt845  Pt    0.58610   0.32779   0.25446   0.00000  Uiso   1.00
Pt846  Pt    0.32779   0.58610   0.25446   0.00000  Uiso   1.00
Pt847  Pt    0.50000   0.67221   0.76391   0.00000  Uiso   1.00
Pt848  Pt    0.67221   0.50000   0.76391   0.00000  Uiso   1.00
Pt849  Pt    0.50000   0.32779   0.76391   0.00000  Uiso   1.00
Pt850  Pt    0.32779   0.50000   0.76391   0.00000  Uiso   1.00
Pt851  Pt    0.28474   0.28474   0.42428   0.00000  Uiso   1.00
Pt852  Pt    0.45695   0.19864   0.42428   0.00000  Uiso   1.00
Pt853  Pt    0.19864   0.45695   0.42428   0.00000  Uiso   1.00
Pt854  Pt    0.54305   0.19864   0.42428   0.00000  Uiso   1.00
Pt855  Pt    0.19864   0.54305   0.42428   0.00000  Uiso   1.00
Pt856  Pt    0.28474   0.71526   0.42428   0.00000  Uiso   1.00
Pt857  Pt    0.71526   0.28474   0.42428   0.00000  Uiso   1.00
Pt858  Pt    0.45695   0.80136   0.42428   0.00000  Uiso   1.00
Pt859  Pt    0.80136   0.45695   0.42428   0.00000  Uiso   1.00
Pt860  Pt    0.80136   0.54305   0.42428   0.00000  Uiso   1.00
Pt861  Pt    0.54305   0.80136   0.42428   0.00000  Uiso   1.00
Pt862  Pt    0.71526   0.71526   0.42428   0.00000  Uiso   1.00
Pt863  Pt    0.37085   0.24169   0.37812   0.00000  Uiso   1.00
Pt864  Pt    0.24169   0.37085   0.37812   0.00000  Uiso   1.00
Pt865  Pt    0.75831   0.37085   0.37812   0.00000  Uiso   1.00
Pt866  Pt    0.37085   0.75831   0.37812   0.00000  Uiso   1.00
Pt867  Pt    0.62915   0.24169   0.37812   0.00000  Uiso   1.00
Pt868  Pt    0.62915   0.75831   0.37812   0.00000  Uiso   1.00
Pt869  Pt    0.75831   0.62915   0.37812   0.00000  Uiso   1.00
Pt870  Pt    0.24169   0.62915   0.37812   0.00000  Uiso   1.00
Pt871  Pt    0.19864   0.41390   0.54793   0.00000  Uiso   1.00
Pt872  Pt    0.41390   0.19864   0.54793   0.00000  Uiso   1.00
Pt873  Pt    0.58610   0.19864   0.54793   0.00000  Uiso   1.00
Pt874  Pt    0.19864   0.58610   0.54793   0.00000  Uiso   1.00
Pt875  Pt    0.58610   0.80136   0.54793   0.00000  Uiso   1.00
Pt876  Pt    0.80136   0.58610   0.54793   0.00000  Uiso   1.00
Pt877  Pt    0.41390   0.80136   0.54793   0.00000  Uiso   1.00
Pt878  Pt    0.80136   0.41390   0.54793   0.00000  Uiso   1.00
Pt879  Pt    0.41390   0.28474   0.71775   0.00000  Uiso   1.00
Pt880  Pt    0.58610   0.28474   0.71775   0.00000  Uiso   1.00
Pt881  Pt    0.28474   0.58610   0.71775   0.00000  Uiso   1.00
Pt882  Pt    0.28474   0.41390   0.71775   0.00000  Uiso   1.00
Pt883  Pt    0.71526   0.58610   0.71775   0.00000  Uiso   1.00
Pt884  Pt    0.58610   0.71526   0.71775   0.00000  Uiso   1.00
Pt885  Pt    0.71526   0.41390   0.71775   0.00000  Uiso   1.00
Pt886  Pt    0.41390   0.71526   0.71775   0.00000  Uiso   1.00
Pt887  Pt    0.28474   0.28474   0.59409   0.00000  Uiso   1.00
Pt888  Pt    0.45695   0.19864   0.59409   0.00000  Uiso   1.00
Pt889  Pt    0.19864   0.45695   0.59409   0.00000  Uiso   1.00
Pt890  Pt    0.54305   0.19864   0.59409   0.00000  Uiso   1.00
Pt891  Pt    0.19864   0.54305   0.59409   0.00000  Uiso   1.00
Pt892  Pt    0.71526   0.28474   0.59409   0.00000  Uiso   1.00
Pt893  Pt    0.28474   0.71526   0.59409   0.00000  Uiso   1.00
Pt894  Pt    0.80136   0.45695   0.59409   0.00000  Uiso   1.00
Pt895  Pt    0.45695   0.80136   0.59409   0.00000  Uiso   1.00
Pt896  Pt    0.54305   0.80136   0.59409   0.00000  Uiso   1.00
Pt897  Pt    0.80136   0.54305   0.59409   0.00000  Uiso   1.00
Pt898  Pt    0.71526   0.71526   0.59409   0.00000  Uiso   1.00
Pt899  Pt    0.37085   0.37085   0.76391   0.00000  Uiso   1.00
Pt900  Pt    0.62915   0.37085   0.76391   0.00000  Uiso   1.00
Pt901  Pt    0.37085   0.62915   0.76391   0.00000  Uiso   1.00
Pt902  Pt    0.62915   0.62915   0.76391   0.00000  Uiso   1.00
Pt903  Pt    0.67221   0.75831   0.42428   0.00000  Uiso   1.00
Pt904  Pt    0.67221   0.24169   0.42428   0.00000  Uiso   1.00
Pt905  Pt    0.24169   0.67221   0.42428   0.00000  Uiso   1.00
Pt906  Pt    0.32779   0.24169   0.42428   0.00000  Uiso   1.00
Pt907  Pt    0.75831   0.67221   0.42428   0.00000  Uiso   1.00
Pt908  Pt    0.32779   0.75831   0.42428   0.00000  Uiso   1.00
Pt909  Pt    0.75831   0.32779   0.42428   0.00000  Uiso   1.00
Pt910  Pt    0.24169   0.32779   0.42428   0.00000  Uiso   1.00
Pt911  Pt    0.50000   0.37085   0.20831   0.00000  Uiso   1.00
Pt912  Pt    0.37085   0.50000   0.20831   0.00000  Uiso   1.00
Pt913  Pt    0.50000   0.62915   0.20831   0.00000  Uiso   1.00
Pt914  Pt    0.62915   0.50000   0.20831   0.00000  Uiso   1.00
Pt915  Pt    0.58610   0.75831   0.67159   0.00000  Uiso   1.00
Pt916  Pt    0.58610   0.24169   0.67159   0.00000  Uiso   1.00
Pt917  Pt    0.41390   0.24169   0.67159   0.00000  Uiso   1.00
Pt918  Pt    0.24169   0.58610   0.67159   0.00000  Uiso   1.00
Pt919  Pt    0.75831   0.58610   0.67159   0.00000  Uiso   1.00
Pt920  Pt    0.24169   0.41390   0.67159   0.00000  Uiso   1.00
Pt921  Pt    0.75831   0.41390   0.67159   0.00000  Uiso   1.00
Pt922  Pt    0.41390   0.75831   0.67159   0.00000  Uiso   1.00
Pt923  Pt    0.41390   0.24169   0.33196   0.00000  Uiso   1.00
Pt924  Pt    0.58610   0.75831   0.33196   0.00000  Uiso   1.00
Pt925  Pt    0.58610   0.24169   0.33196   0.00000  Uiso   1.00
Pt926  Pt    0.75831   0.41390   0.33196   0.00000  Uiso   1.00
Pt927  Pt    0.75831   0.58610   0.33196   0.00000  Uiso   1.00
Pt928  Pt    0.24169   0.58610   0.33196   0.00000  Uiso   1.00
Pt929  Pt    0.41390   0.75831   0.33196   0.00000  Uiso   1.00
Pt930  Pt    0.24169   0.41390   0.33196   0.00000  Uiso   1.00
Pt931  Pt    0.67221   0.75831   0.59409   0.00000  Uiso   1.00
Pt932  Pt    0.67221   0.24169   0.59409   0.00000  Uiso   1.00
Pt933  Pt    0.32779   0.24169   0.59409   0.00000  Uiso   1.00
Pt934  Pt    0.24169   0.67221   0.59409   0.00000  Uiso   1.00
Pt935  Pt    0.24169   0.32779   0.59409   0.00000  Uiso   1.00
Pt936  Pt    0.75831   0.67221   0.59409   0.00000  Uiso   1.00
Pt937  Pt    0.32779   0.75831   0.59409   0.00000  Uiso   1.00
Pt938  Pt    0.75831   0.32779   0.59409   0.00000  Uiso   1.00
Pt939  Pt    0.67221   0.41390   0.76391   0.00000  Uiso   1.00
Pt940  Pt    0.58610   0.67221   0.76391   0.00000  Uiso   1.00
Pt941  Pt    0.67221   0.58610   0.76391   0.00000  Uiso   1.00
Pt942  Pt    0.41390   0.67221   0.76391   0.00000  Uiso   1.00
Pt943  Pt    0.41390   0.32779   0.76391   0.00000  Uiso   1.00
Pt944  Pt    0.58610   0.32779   0.76391   0.00000  Uiso   1.00
Pt945  Pt    0.32779   0.41390   0.76391   0.00000  Uiso   1.00
Pt946  Pt    0.32779   0.58610   0.76391   0.00000  Uiso   1.00
Pt947  Pt    0.19864   0.50000   0.37812   0.00000  Uiso   1.00
Pt948  Pt    0.50000   0.19864   0.37812   0.00000  Uiso   1.00
Pt949  Pt    0.50000   0.80136   0.37812   0.00000  Uiso   1.00
Pt950  Pt    0.80136   0.50000   0.37812   0.00000  Uiso   1.00
Pt951  Pt    0.37085   0.19864   0.50178   0.00000  Uiso   1.00
Pt952  Pt    0.19864   0.37085   0.50178   0.00000  Uiso   1.00
Pt953  Pt    0.62915   0.19864   0.50178   0.00000  Uiso   1.00
Pt954  Pt    0.19864   0.62915   0.50178   0.00000  Uiso   1.00
Pt955  Pt    0.80136   0.37085   0.50178   0.00000  Uiso   1.00
Pt956  Pt    0.37085   0.80136   0.50178   0.00000  Uiso   1.00
Pt957  Pt    0.62915   0.80136   0.50178   0.00000  Uiso   1.00
Pt958  Pt    0.80136   0.62915   0.50178   0.00000  Uiso   1.00
Pt967  Pt    0.41390   0.37085   0.20831   0.00000  Uiso   1.00
Pt968  Pt    0.37085   0.41390   0.20831   0.00000  Uiso   1.00
Pt969  Pt    0.58610   0.37085   0.20831   0.00000  Uiso   1.00
Pt970  Pt    0.37085   0.58610   0.20831   0.00000  Uiso   1.00
Pt971  Pt    0.41390   0.62915   0.20831   0.00000  Uiso   1.00
Pt972  Pt    0.58610   0.62915   0.20831   0.00000  Uiso   1.00
Pt973  Pt    0.62915   0.41390   0.20831   0.00000  Uiso   1.00
Pt974  Pt    0.62915   0.58610   0.20831   0.00000  Uiso   1.00
