# generated using pymatgen
data_Co23Pt24
_symmetry_space_group_name_H-M   'P 1'
_cell_length_a   45.00000000
_cell_length_b   45.00000000
_cell_length_c   45.00000000
_cell_angle_alpha   90.00000000
_cell_angle_beta   90.00000000
_cell_angle_gamma   90.00000000
_symmetry_Int_Tables_number   1
_chemical_formula_structural   Co23Pt24
_chemical_formula_sum   'Co529 Pt552'
_cell_volume   91125.00000000
_cell_formula_units_Z   23
loop_
 _symmetry_equiv_pos_site_id
 _symmetry_equiv_pos_as_xyz
  1  'x, y, z'
loop_
 _atom_site_type_symbol
 _atom_site_label
 _atom_site_symmetry_multiplicity
 _atom_site_fract_x
 _atom_site_fract_y
 _atom_site_fract_z
 _atom_site_occupancy
  Co  Co0  1  0.49999999  0.49999999  0.49999999  1
  Co  Co1  1  0.45787577  0.49999999  0.45787577  1
  Co  Co2  1  0.54212424  0.49999999  0.45787577  1
  Co  Co3  1  0.45787577  0.49999999  0.54212424  1
  Co  Co4  1  0.54212424  0.49999999  0.54212424  1
  Co  Co5  1  0.49999999  0.41930601  0.49999999  1
  Co  Co6  1  0.49999999  0.58069397  0.49999999  1
  Co  Co7  1  0.58424846  0.49999999  0.49999999  1
  Co  Co8  1  0.49999999  0.49999999  0.58424846  1
  Co  Co9  1  0.49999999  0.49999999  0.41575153  1
  Co  Co10  1  0.41575153  0.49999999  0.49999999  1
  Co  Co11  1  0.45787577  0.58069397  0.45787577  1
  Co  Co12  1  0.45787577  0.41930601  0.45787577  1
  Co  Co13  1  0.45787577  0.58069397  0.54212424  1
  Co  Co14  1  0.54212424  0.41930601  0.45787577  1
  Co  Co15  1  0.54212424  0.58069397  0.45787577  1
  Co  Co16  1  0.45787577  0.41930601  0.54212424  1
  Co  Co17  1  0.54212424  0.58069397  0.54212424  1
  Co  Co18  1  0.54212424  0.41930601  0.54212424  1
  Co  Co19  1  0.58424846  0.41930601  0.49999999  1
  Co  Co20  1  0.58424846  0.58069397  0.49999999  1
  Co  Co21  1  0.49999999  0.41930601  0.58424846  1
  Co  Co22  1  0.49999999  0.58069397  0.58424846  1
  Co  Co23  1  0.49999999  0.41930601  0.41575153  1
  Co  Co24  1  0.49999999  0.58069397  0.41575153  1
  Co  Co25  1  0.41575153  0.58069397  0.49999999  1
  Co  Co26  1  0.41575153  0.41930601  0.49999999  1
  Co  Co27  1  0.58424846  0.49999999  0.58424846  1
  Co  Co28  1  0.58424846  0.49999999  0.41575153  1
  Co  Co29  1  0.41575153  0.49999999  0.58424846  1
  Co  Co30  1  0.41575153  0.49999999  0.41575153  1
  Co  Co31  1  0.45787577  0.49999999  0.37362731  1
  Co  Co32  1  0.37362731  0.49999999  0.45787577  1
  Co  Co33  1  0.54212424  0.49999999  0.37362731  1
  Co  Co34  1  0.37362731  0.49999999  0.54212424  1
  Co  Co35  1  0.62637271  0.49999999  0.45787577  1
  Co  Co36  1  0.45787577  0.49999999  0.62637271  1
  Co  Co37  1  0.62637271  0.49999999  0.54212424  1
  Co  Co38  1  0.54212424  0.49999999  0.62637271  1
  Co  Co39  1  0.58424846  0.58069397  0.58424846  1
  Co  Co40  1  0.58424846  0.41930601  0.58424846  1
  Co  Co41  1  0.58424846  0.58069397  0.41575153  1
  Co  Co42  1  0.58424846  0.41930601  0.41575153  1
  Co  Co43  1  0.41575153  0.58069397  0.58424846  1
  Co  Co44  1  0.41575153  0.58069397  0.41575153  1
  Co  Co45  1  0.41575153  0.41930601  0.58424846  1
  Co  Co46  1  0.41575153  0.41930601  0.41575153  1
  Co  Co47  1  0.45787577  0.58069397  0.37362731  1
  Co  Co48  1  0.45787577  0.41930601  0.37362731  1
  Co  Co49  1  0.37362731  0.58069397  0.45787577  1
  Co  Co50  1  0.37362731  0.41930601  0.45787577  1
  Co  Co51  1  0.54212424  0.58069397  0.37362731  1
  Co  Co52  1  0.54212424  0.41930601  0.37362731  1
  Co  Co53  1  0.37362731  0.58069397  0.54212424  1
  Co  Co54  1  0.37362731  0.41930601  0.54212424  1
  Co  Co55  1  0.62637271  0.41930601  0.45787577  1
  Co  Co56  1  0.62637271  0.58069397  0.45787577  1
  Co  Co57  1  0.45787577  0.58069397  0.62637271  1
  Co  Co58  1  0.45787577  0.41930601  0.62637271  1
  Co  Co59  1  0.62637271  0.41930601  0.54212424  1
  Co  Co60  1  0.62637271  0.58069397  0.54212424  1
  Co  Co61  1  0.54212424  0.41930601  0.62637271  1
  Co  Co62  1  0.54212424  0.58069397  0.62637271  1
  Co  Co63  1  0.49999999  0.33861204  0.49999999  1
  Co  Co64  1  0.49999999  0.66138795  0.49999999  1
  Co  Co65  1  0.66849693  0.49999999  0.49999999  1
  Co  Co66  1  0.49999999  0.49999999  0.33150306  1
  Co  Co67  1  0.49999999  0.49999999  0.66849693  1
  Co  Co68  1  0.33150306  0.49999999  0.49999999  1
  Co  Co69  1  0.45787577  0.33861204  0.45787577  1
  Co  Co70  1  0.45787577  0.66138795  0.45787577  1
  Co  Co71  1  0.45787577  0.33861204  0.54212424  1
  Co  Co72  1  0.54212424  0.33861204  0.45787577  1
  Co  Co73  1  0.45787577  0.66138795  0.54212424  1
  Co  Co74  1  0.54212424  0.66138795  0.45787577  1
  Co  Co75  1  0.54212424  0.33861204  0.54212424  1
  Co  Co76  1  0.54212424  0.66138795  0.54212424  1
  Co  Co77  1  0.37362731  0.49999999  0.37362731  1
  Co  Co78  1  0.62637271  0.49999999  0.37362731  1
  Co  Co79  1  0.37362731  0.49999999  0.62637271  1
  Co  Co80  1  0.62637271  0.49999999  0.62637271  1
  Co  Co81  1  0.58424846  0.33861204  0.49999999  1
  Co  Co82  1  0.49999999  0.66138795  0.58424846  1
  Co  Co83  1  0.49999999  0.33861204  0.58424846  1
  Co  Co84  1  0.49999999  0.33861204  0.41575153  1
  Co  Co85  1  0.58424846  0.66138795  0.49999999  1
  Co  Co86  1  0.41575153  0.33861204  0.49999999  1
  Co  Co87  1  0.49999999  0.66138795  0.41575153  1
  Co  Co88  1  0.41575153  0.66138795  0.49999999  1
  Co  Co89  1  0.66849693  0.58069397  0.49999999  1
  Co  Co90  1  0.66849693  0.41930601  0.49999999  1
  Co  Co91  1  0.49999999  0.58069397  0.33150306  1
  Co  Co92  1  0.49999999  0.41930601  0.66849693  1
  Co  Co93  1  0.49999999  0.58069397  0.66849693  1
  Co  Co94  1  0.49999999  0.41930601  0.33150306  1
  Co  Co95  1  0.33150306  0.58069397  0.49999999  1
  Co  Co96  1  0.33150306  0.41930601  0.49999999  1
  Co  Co97  1  0.66849693  0.49999999  0.58424846  1
  Co  Co98  1  0.66849693  0.49999999  0.41575153  1
  Co  Co99  1  0.58424846  0.49999999  0.66849693  1
  Co  Co100  1  0.58424846  0.49999999  0.33150306  1
  Co  Co101  1  0.41575153  0.49999999  0.66849693  1
  Co  Co102  1  0.41575153  0.49999999  0.33150306  1
  Co  Co103  1  0.33150306  0.49999999  0.41575153  1
  Co  Co104  1  0.33150306  0.49999999  0.58424846  1
  Co  Co105  1  0.37362731  0.41930601  0.37362731  1
  Co  Co106  1  0.37362731  0.58069397  0.37362731  1
  Co  Co107  1  0.62637271  0.58069397  0.37362731  1
  Co  Co108  1  0.62637271  0.41930601  0.37362731  1
  Co  Co109  1  0.37362731  0.58069397  0.62637271  1
  Co  Co110  1  0.37362731  0.41930601  0.62637271  1
  Co  Co111  1  0.62637271  0.58069397  0.62637271  1
  Co  Co112  1  0.62637271  0.41930601  0.62637271  1
  Co  Co113  1  0.58424846  0.33861204  0.58424846  1
  Co  Co114  1  0.58424846  0.66138795  0.58424846  1
  Co  Co115  1  0.58424846  0.33861204  0.41575153  1
  Co  Co116  1  0.58424846  0.66138795  0.41575153  1
  Co  Co117  1  0.41575153  0.33861204  0.58424846  1
  Co  Co118  1  0.41575153  0.66138795  0.58424846  1
  Co  Co119  1  0.41575153  0.33861204  0.41575153  1
  Co  Co120  1  0.41575153  0.66138795  0.41575153  1
  Co  Co121  1  0.66849693  0.58069397  0.58424846  1
  Co  Co122  1  0.66849693  0.41930601  0.41575153  1
  Co  Co123  1  0.66849693  0.41930601  0.58424846  1
  Co  Co124  1  0.66849693  0.58069397  0.41575153  1
  Co  Co125  1  0.58424846  0.41930601  0.66849693  1
  Co  Co126  1  0.58424846  0.41930601  0.33150306  1
  Co  Co127  1  0.58424846  0.58069397  0.33150306  1
  Co  Co128  1  0.58424846  0.58069397  0.66849693  1
  Co  Co129  1  0.41575153  0.58069397  0.33150306  1
  Co  Co130  1  0.41575153  0.58069397  0.66849693  1
  Co  Co131  1  0.41575153  0.41930601  0.66849693  1
  Co  Co132  1  0.41575153  0.41930601  0.33150306  1
  Co  Co133  1  0.33150306  0.58069397  0.41575153  1
  Co  Co134  1  0.33150306  0.58069397  0.58424846  1
  Co  Co135  1  0.33150306  0.41930601  0.41575153  1
  Co  Co136  1  0.33150306  0.41930601  0.58424846  1
  Co  Co137  1  0.45787577  0.66138795  0.37362731  1
  Co  Co138  1  0.37362731  0.33861204  0.45787577  1
  Co  Co139  1  0.45787577  0.33861204  0.37362731  1
  Co  Co140  1  0.37362731  0.66138795  0.45787577  1
  Co  Co141  1  0.54212424  0.66138795  0.37362731  1
  Co  Co142  1  0.54212424  0.33861204  0.37362731  1
  Co  Co143  1  0.37362731  0.66138795  0.54212424  1
  Co  Co144  1  0.37362731  0.33861204  0.54212424  1
  Co  Co145  1  0.62637271  0.33861204  0.45787577  1
  Co  Co146  1  0.62637271  0.66138795  0.45787577  1
  Co  Co147  1  0.45787577  0.33861204  0.62637271  1
  Co  Co148  1  0.45787577  0.66138795  0.62637271  1
  Co  Co149  1  0.62637271  0.33861204  0.54212424  1
  Co  Co150  1  0.54212424  0.33861204  0.62637271  1
  Co  Co151  1  0.62637271  0.66138795  0.54212424  1
  Co  Co152  1  0.54212424  0.66138795  0.62637271  1
  Co  Co153  1  0.28937884  0.49999999  0.45787577  1
  Co  Co154  1  0.45787577  0.49999999  0.28937884  1
  Co  Co155  1  0.54212424  0.49999999  0.28937884  1
  Co  Co156  1  0.28937884  0.49999999  0.54212424  1
  Co  Co157  1  0.45787577  0.49999999  0.71062117  1
  Co  Co158  1  0.71062117  0.49999999  0.45787577  1
  Co  Co159  1  0.71062117  0.49999999  0.54212424  1
  Co  Co160  1  0.54212424  0.49999999  0.71062117  1
  Co  Co161  1  0.45787577  0.58069397  0.28937884  1
  Co  Co162  1  0.45787577  0.41930601  0.28937884  1
  Co  Co163  1  0.28937884  0.41930601  0.45787577  1
  Co  Co164  1  0.28937884  0.58069397  0.45787577  1
  Co  Co165  1  0.54212424  0.58069397  0.28937884  1
  Co  Co166  1  0.54212424  0.41930601  0.28937884  1
  Co  Co167  1  0.28937884  0.41930601  0.54212424  1
  Co  Co168  1  0.28937884  0.58069397  0.54212424  1
  Co  Co169  1  0.71062117  0.58069397  0.45787577  1
  Co  Co170  1  0.45787577  0.41930601  0.71062117  1
  Co  Co171  1  0.71062117  0.41930601  0.45787577  1
  Co  Co172  1  0.45787577  0.58069397  0.71062117  1
  Co  Co173  1  0.71062117  0.41930601  0.54212424  1
  Co  Co174  1  0.71062117  0.58069397  0.54212424  1
  Co  Co175  1  0.54212424  0.41930601  0.71062117  1
  Co  Co176  1  0.54212424  0.58069397  0.71062117  1
  Co  Co177  1  0.66849693  0.33861204  0.49999999  1
  Co  Co178  1  0.66849693  0.66138795  0.49999999  1
  Co  Co179  1  0.49999999  0.66138795  0.33150306  1
  Co  Co180  1  0.49999999  0.33861204  0.66849693  1
  Co  Co181  1  0.49999999  0.66138795  0.66849693  1
  Co  Co182  1  0.49999999  0.33861204  0.33150306  1
  Co  Co183  1  0.33150306  0.33861204  0.49999999  1
  Co  Co184  1  0.33150306  0.66138795  0.49999999  1
  Co  Co185  1  0.66849693  0.49999999  0.66849693  1
  Co  Co186  1  0.66849693  0.49999999  0.33150306  1
  Co  Co187  1  0.33150306  0.49999999  0.33150306  1
  Co  Co188  1  0.33150306  0.49999999  0.66849693  1
  Co  Co189  1  0.37362731  0.66138795  0.37362731  1
  Co  Co190  1  0.37362731  0.33861204  0.37362731  1
  Co  Co191  1  0.62637271  0.66138795  0.37362731  1
  Co  Co192  1  0.62637271  0.33861204  0.37362731  1
  Co  Co193  1  0.37362731  0.33861204  0.62637271  1
  Co  Co194  1  0.37362731  0.66138795  0.62637271  1
  Co  Co195  1  0.62637271  0.66138795  0.62637271  1
  Co  Co196  1  0.62637271  0.33861204  0.62637271  1
  Co  Co197  1  0.49999999  0.25791806  0.49999999  1
  Co  Co198  1  0.49999999  0.74208192  0.49999999  1
  Co  Co199  1  0.28937884  0.49999999  0.37362731  1
  Co  Co200  1  0.37362731  0.49999999  0.28937884  1
  Co  Co201  1  0.62637271  0.49999999  0.28937884  1
  Co  Co202  1  0.28937884  0.49999999  0.62637271  1
  Co  Co203  1  0.71062117  0.49999999  0.37362731  1
  Co  Co204  1  0.37362731  0.49999999  0.71062117  1
  Co  Co205  1  0.71062117  0.49999999  0.62637271  1
  Co  Co206  1  0.62637271  0.49999999  0.71062117  1
  Co  Co207  1  0.66849693  0.66138795  0.41575153  1
  Co  Co208  1  0.66849693  0.33861204  0.41575153  1
  Co  Co209  1  0.66849693  0.33861204  0.58424846  1
  Co  Co210  1  0.66849693  0.66138795  0.58424846  1
  Co  Co211  1  0.58424846  0.66138795  0.33150306  1
  Co  Co212  1  0.58424846  0.66138795  0.66849693  1
  Co  Co213  1  0.58424846  0.33861204  0.66849693  1
  Co  Co214  1  0.58424846  0.33861204  0.33150306  1
  Co  Co215  1  0.33150306  0.33861204  0.58424846  1
  Co  Co216  1  0.41575153  0.33861204  0.66849693  1
  Co  Co217  1  0.41575153  0.66138795  0.66849693  1
  Co  Co218  1  0.41575153  0.66138795  0.33150306  1
  Co  Co219  1  0.33150306  0.33861204  0.41575153  1
  Co  Co220  1  0.41575153  0.33861204  0.33150306  1
  Co  Co221  1  0.33150306  0.66138795  0.58424846  1
  Co  Co222  1  0.33150306  0.66138795  0.41575153  1
  Co  Co223  1  0.45787577  0.25791806  0.45787577  1
  Co  Co224  1  0.45787577  0.74208192  0.45787577  1
  Co  Co225  1  0.54212424  0.25791806  0.45787577  1
  Co  Co226  1  0.45787577  0.25791806  0.54212424  1
  Co  Co227  1  0.54212424  0.74208192  0.45787577  1
  Co  Co228  1  0.45787577  0.74208192  0.54212424  1
  Co  Co229  1  0.54212424  0.25791806  0.54212424  1
  Co  Co230  1  0.54212424  0.74208192  0.54212424  1
  Co  Co231  1  0.66849693  0.41930601  0.66849693  1
  Co  Co232  1  0.66849693  0.58069397  0.66849693  1
  Co  Co233  1  0.66849693  0.58069397  0.33150306  1
  Co  Co234  1  0.66849693  0.41930601  0.33150306  1
  Co  Co235  1  0.33150306  0.58069397  0.66849693  1
  Co  Co236  1  0.33150306  0.58069397  0.33150306  1
  Co  Co237  1  0.33150306  0.41930601  0.66849693  1
  Co  Co238  1  0.33150306  0.41930601  0.33150306  1
  Co  Co239  1  0.75274539  0.49999999  0.49999999  1
  Co  Co240  1  0.49999999  0.49999999  0.24725459  1
  Co  Co241  1  0.24725459  0.49999999  0.49999999  1
  Co  Co242  1  0.49999999  0.49999999  0.75274539  1
  Co  Co243  1  0.49999999  0.25791806  0.41575153  1
  Co  Co244  1  0.49999999  0.25791806  0.58424846  1
  Co  Co245  1  0.58424846  0.25791806  0.49999999  1
  Co  Co246  1  0.41575153  0.25791806  0.49999999  1
  Co  Co247  1  0.58424846  0.74208192  0.49999999  1
  Co  Co248  1  0.49999999  0.74208192  0.41575153  1
  Co  Co249  1  0.49999999  0.74208192  0.58424846  1
  Co  Co250  1  0.41575153  0.74208192  0.49999999  1
  Co  Co251  1  0.37362731  0.58069397  0.28937884  1
  Co  Co252  1  0.37362731  0.41930601  0.28937884  1
  Co  Co253  1  0.28937884  0.41930601  0.37362731  1
  Co  Co254  1  0.28937884  0.58069397  0.37362731  1
  Co  Co255  1  0.62637271  0.58069397  0.28937884  1
  Co  Co256  1  0.28937884  0.41930601  0.62637271  1
  Co  Co257  1  0.62637271  0.41930601  0.28937884  1
  Co  Co258  1  0.28937884  0.58069397  0.62637271  1
  Co  Co259  1  0.71062117  0.58069397  0.37362731  1
  Co  Co260  1  0.71062117  0.41930601  0.37362731  1
  Co  Co261  1  0.37362731  0.58069397  0.71062117  1
  Co  Co262  1  0.37362731  0.41930601  0.71062117  1
  Co  Co263  1  0.71062117  0.41930601  0.62637271  1
  Co  Co264  1  0.62637271  0.41930601  0.71062117  1
  Co  Co265  1  0.62637271  0.58069397  0.71062117  1
  Co  Co266  1  0.71062117  0.58069397  0.62637271  1
  Co  Co267  1  0.75274539  0.41930601  0.49999999  1
  Co  Co268  1  0.49999999  0.58069397  0.24725459  1
  Co  Co269  1  0.49999999  0.41930601  0.75274539  1
  Co  Co270  1  0.75274539  0.58069397  0.49999999  1
  Co  Co271  1  0.49999999  0.41930601  0.24725459  1
  Co  Co272  1  0.24725459  0.41930601  0.49999999  1
  Co  Co273  1  0.49999999  0.58069397  0.75274539  1
  Co  Co274  1  0.24725459  0.58069397  0.49999999  1
  Co  Co275  1  0.58424846  0.49999999  0.24725459  1
  Co  Co276  1  0.75274539  0.49999999  0.58424846  1
  Co  Co277  1  0.75274539  0.49999999  0.41575153  1
  Co  Co278  1  0.41575153  0.49999999  0.75274539  1
  Co  Co279  1  0.58424846  0.49999999  0.75274539  1
  Co  Co280  1  0.24725459  0.49999999  0.58424846  1
  Co  Co281  1  0.24725459  0.49999999  0.41575153  1
  Co  Co282  1  0.41575153  0.49999999  0.24725459  1
  Co  Co283  1  0.28937884  0.33861204  0.45787577  1
  Co  Co284  1  0.45787577  0.66138795  0.28937884  1
  Co  Co285  1  0.45787577  0.33861204  0.28937884  1
  Co  Co286  1  0.28937884  0.66138795  0.45787577  1
  Co  Co287  1  0.54212424  0.33861204  0.28937884  1
  Co  Co288  1  0.54212424  0.66138795  0.28937884  1
  Co  Co289  1  0.28937884  0.33861204  0.54212424  1
  Co  Co290  1  0.28937884  0.66138795  0.54212424  1
  Co  Co291  1  0.71062117  0.33861204  0.45787577  1
  Co  Co292  1  0.71062117  0.66138795  0.45787577  1
  Co  Co293  1  0.45787577  0.66138795  0.71062117  1
  Co  Co294  1  0.45787577  0.33861204  0.71062117  1
  Co  Co295  1  0.54212424  0.33861204  0.71062117  1
  Co  Co296  1  0.71062117  0.33861204  0.54212424  1
  Co  Co297  1  0.71062117  0.66138795  0.54212424  1
  Co  Co298  1  0.54212424  0.66138795  0.71062117  1
  Co  Co299  1  0.58424846  0.25791806  0.58424846  1
  Co  Co300  1  0.58424846  0.25791806  0.41575153  1
  Co  Co301  1  0.58424846  0.74208192  0.58424846  1
  Co  Co302  1  0.41575153  0.25791806  0.58424846  1
  Co  Co303  1  0.41575153  0.25791806  0.41575153  1
  Co  Co304  1  0.58424846  0.74208192  0.41575153  1
  Co  Co305  1  0.41575153  0.74208192  0.41575153  1
  Co  Co306  1  0.41575153  0.74208192  0.58424846  1
  Co  Co307  1  0.37362731  0.25791806  0.45787577  1
  Co  Co308  1  0.45787577  0.25791806  0.37362731  1
  Co  Co309  1  0.45787577  0.74208192  0.37362731  1
  Co  Co310  1  0.37362731  0.74208192  0.45787577  1
  Co  Co311  1  0.54212424  0.25791806  0.37362731  1
  Co  Co312  1  0.54212424  0.74208192  0.37362731  1
  Co  Co313  1  0.37362731  0.25791806  0.54212424  1
  Co  Co314  1  0.37362731  0.74208192  0.54212424  1
  Co  Co315  1  0.62637271  0.25791806  0.45787577  1
  Co  Co316  1  0.62637271  0.74208192  0.45787577  1
  Co  Co317  1  0.45787577  0.25791806  0.62637271  1
  Co  Co318  1  0.45787577  0.74208192  0.62637271  1
  Co  Co319  1  0.62637271  0.25791806  0.54212424  1
  Co  Co320  1  0.62637271  0.74208192  0.54212424  1
  Co  Co321  1  0.54212424  0.25791806  0.62637271  1
  Co  Co322  1  0.54212424  0.74208192  0.62637271  1
  Co  Co323  1  0.75274539  0.58069397  0.58424846  1
  Co  Co324  1  0.58424846  0.58069397  0.24725459  1
  Co  Co325  1  0.75274539  0.41930601  0.41575153  1
  Co  Co326  1  0.75274539  0.41930601  0.58424846  1
  Co  Co327  1  0.75274539  0.58069397  0.41575153  1
  Co  Co328  1  0.58424846  0.41930601  0.24725459  1
  Co  Co329  1  0.41575153  0.41930601  0.75274539  1
  Co  Co330  1  0.24725459  0.41930601  0.58424846  1
  Co  Co331  1  0.58424846  0.41930601  0.75274539  1
  Co  Co332  1  0.41575153  0.58069397  0.24725459  1
  Co  Co333  1  0.58424846  0.58069397  0.75274539  1
  Co  Co334  1  0.41575153  0.41930601  0.24725459  1
  Co  Co335  1  0.24725459  0.58069397  0.58424846  1
  Co  Co336  1  0.24725459  0.58069397  0.41575153  1
  Co  Co337  1  0.24725459  0.41930601  0.41575153  1
  Co  Co338  1  0.41575153  0.58069397  0.75274539  1
  Co  Co339  1  0.66849693  0.33861204  0.66849693  1
  Co  Co340  1  0.66849693  0.33861204  0.33150306  1
  Co  Co341  1  0.33150306  0.33861204  0.66849693  1
  Co  Co342  1  0.66849693  0.66138795  0.33150306  1
  Co  Co343  1  0.66849693  0.66138795  0.66849693  1
  Co  Co344  1  0.33150306  0.33861204  0.33150306  1
  Co  Co345  1  0.33150306  0.66138795  0.66849693  1
  Co  Co346  1  0.33150306  0.66138795  0.33150306  1
  Co  Co347  1  0.28937884  0.33861204  0.37362731  1
  Co  Co348  1  0.37362731  0.33861204  0.28937884  1
  Co  Co349  1  0.37362731  0.66138795  0.28937884  1
  Co  Co350  1  0.28937884  0.66138795  0.37362731  1
  Co  Co351  1  0.28937884  0.33861204  0.62637271  1
  Co  Co352  1  0.62637271  0.33861204  0.28937884  1
  Co  Co353  1  0.62637271  0.66138795  0.28937884  1
  Co  Co354  1  0.28937884  0.66138795  0.62637271  1
  Co  Co355  1  0.71062117  0.33861204  0.37362731  1
  Co  Co356  1  0.71062117  0.66138795  0.37362731  1
  Co  Co357  1  0.37362731  0.33861204  0.71062117  1
  Co  Co358  1  0.37362731  0.66138795  0.71062117  1
  Co  Co359  1  0.71062117  0.66138795  0.62637271  1
  Co  Co360  1  0.71062117  0.33861204  0.62637271  1
  Co  Co361  1  0.62637271  0.33861204  0.71062117  1
  Co  Co362  1  0.62637271  0.66138795  0.71062117  1
  Co  Co363  1  0.66849693  0.25791806  0.49999999  1
  Co  Co364  1  0.66849693  0.74208192  0.49999999  1
  Co  Co365  1  0.49999999  0.25791806  0.66849693  1
  Co  Co366  1  0.49999999  0.25791806  0.33150306  1
  Co  Co367  1  0.33150306  0.25791806  0.49999999  1
  Co  Co368  1  0.49999999  0.74208192  0.66849693  1
  Co  Co369  1  0.49999999  0.74208192  0.33150306  1
  Co  Co370  1  0.33150306  0.74208192  0.49999999  1
  Co  Co371  1  0.28937884  0.49999999  0.28937884  1
  Co  Co372  1  0.45787577  0.49999999  0.20513037  1
  Co  Co373  1  0.20513037  0.49999999  0.45787577  1
  Co  Co374  1  0.54212424  0.49999999  0.20513037  1
  Co  Co375  1  0.20513037  0.49999999  0.54212424  1
  Co  Co376  1  0.71062117  0.49999999  0.28937884  1
  Co  Co377  1  0.28937884  0.49999999  0.71062117  1
  Co  Co378  1  0.79486964  0.49999999  0.45787577  1
  Co  Co379  1  0.45787577  0.49999999  0.79486964  1
  Co  Co380  1  0.79486964  0.49999999  0.54212424  1
  Co  Co381  1  0.54212424  0.49999999  0.79486964  1
  Co  Co382  1  0.71062117  0.49999999  0.71062117  1
  Co  Co383  1  0.49999999  0.66138795  0.24725459  1
  Co  Co384  1  0.75274539  0.66138795  0.49999999  1
  Co  Co385  1  0.49999999  0.33861204  0.75274539  1
  Co  Co386  1  0.75274539  0.33861204  0.49999999  1
  Co  Co387  1  0.49999999  0.33861204  0.24725459  1
  Co  Co388  1  0.24725459  0.33861204  0.49999999  1
  Co  Co389  1  0.49999999  0.66138795  0.75274539  1
  Co  Co390  1  0.24725459  0.66138795  0.49999999  1
  Co  Co391  1  0.37362731  0.25791806  0.37362731  1
  Co  Co392  1  0.37362731  0.74208192  0.37362731  1
  Co  Co393  1  0.62637271  0.25791806  0.37362731  1
  Co  Co394  1  0.62637271  0.74208192  0.37362731  1
  Co  Co395  1  0.37362731  0.25791806  0.62637271  1
  Co  Co396  1  0.37362731  0.74208192  0.62637271  1
  Co  Co397  1  0.62637271  0.74208192  0.62637271  1
  Co  Co398  1  0.62637271  0.25791806  0.62637271  1
  Co  Co399  1  0.66849693  0.49999999  0.24725459  1
  Co  Co400  1  0.75274539  0.49999999  0.66849693  1
  Co  Co401  1  0.75274539  0.49999999  0.33150306  1
  Co  Co402  1  0.66849693  0.49999999  0.75274539  1
  Co  Co403  1  0.24725459  0.49999999  0.33150306  1
  Co  Co404  1  0.33150306  0.49999999  0.75274539  1
  Co  Co405  1  0.24725459  0.49999999  0.66849693  1
  Co  Co406  1  0.33150306  0.49999999  0.24725459  1
  Co  Co407  1  0.66849693  0.74208192  0.58424846  1
  Co  Co408  1  0.66849693  0.25791806  0.58424846  1
  Co  Co409  1  0.66849693  0.25791806  0.41575153  1
  Co  Co410  1  0.66849693  0.74208192  0.41575153  1
  Co  Co411  1  0.58424846  0.25791806  0.33150306  1
  Co  Co412  1  0.58424846  0.25791806  0.66849693  1
  Co  Co413  1  0.41575153  0.25791806  0.66849693  1
  Co  Co414  1  0.33150306  0.25791806  0.41575153  1
  Co  Co415  1  0.41575153  0.25791806  0.33150306  1
  Co  Co416  1  0.33150306  0.25791806  0.58424846  1
  Co  Co417  1  0.58424846  0.74208192  0.66849693  1
  Co  Co418  1  0.58424846  0.74208192  0.33150306  1
  Co  Co419  1  0.41575153  0.74208192  0.33150306  1
  Co  Co420  1  0.41575153  0.74208192  0.66849693  1
  Co  Co421  1  0.33150306  0.74208192  0.58424846  1
  Co  Co422  1  0.33150306  0.74208192  0.41575153  1
  Co  Co423  1  0.28937884  0.41930601  0.28937884  1
  Co  Co424  1  0.28937884  0.58069397  0.28937884  1
  Co  Co425  1  0.45787577  0.58069397  0.20513037  1
  Co  Co426  1  0.45787577  0.41930601  0.20513037  1
  Co  Co427  1  0.20513037  0.41930601  0.45787577  1
  Co  Co428  1  0.20513037  0.58069397  0.45787577  1
  Co  Co429  1  0.54212424  0.58069397  0.20513037  1
  Co  Co430  1  0.54212424  0.41930601  0.20513037  1
  Co  Co431  1  0.20513037  0.41930601  0.54212424  1
  Co  Co432  1  0.20513037  0.58069397  0.54212424  1
  Co  Co433  1  0.71062117  0.58069397  0.28937884  1
  Co  Co434  1  0.71062117  0.41930601  0.28937884  1
  Co  Co435  1  0.28937884  0.41930601  0.71062117  1
  Co  Co436  1  0.28937884  0.58069397  0.71062117  1
  Co  Co437  1  0.45787577  0.41930601  0.79486964  1
  Co  Co438  1  0.79486964  0.58069397  0.45787577  1
  Co  Co439  1  0.79486964  0.41930601  0.45787577  1
  Co  Co440  1  0.45787577  0.58069397  0.79486964  1
  Co  Co441  1  0.79486964  0.58069397  0.54212424  1
  Co  Co442  1  0.54212424  0.41930601  0.79486964  1
  Co  Co443  1  0.79486964  0.41930601  0.54212424  1
  Co  Co444  1  0.54212424  0.58069397  0.79486964  1
  Co  Co445  1  0.71062117  0.58069397  0.71062117  1
  Co  Co446  1  0.71062117  0.41930601  0.71062117  1
  Co  Co447  1  0.58424846  0.33861204  0.75274539  1
  Co  Co448  1  0.75274539  0.33861204  0.58424846  1
  Co  Co449  1  0.75274539  0.33861204  0.41575153  1
  Co  Co450  1  0.75274539  0.66138795  0.41575153  1
  Co  Co451  1  0.58424846  0.66138795  0.24725459  1
  Co  Co452  1  0.58424846  0.33861204  0.24725459  1
  Co  Co453  1  0.41575153  0.33861204  0.75274539  1
  Co  Co454  1  0.75274539  0.66138795  0.58424846  1
  Co  Co455  1  0.24725459  0.33861204  0.58424846  1
  Co  Co456  1  0.58424846  0.66138795  0.75274539  1
  Co  Co457  1  0.41575153  0.66138795  0.24725459  1
  Co  Co458  1  0.41575153  0.33861204  0.24725459  1
  Co  Co459  1  0.24725459  0.66138795  0.58424846  1
  Co  Co460  1  0.24725459  0.66138795  0.41575153  1
  Co  Co461  1  0.24725459  0.33861204  0.41575153  1
  Co  Co462  1  0.41575153  0.66138795  0.75274539  1
  Co  Co463  1  0.75274539  0.58069397  0.66849693  1
  Co  Co464  1  0.75274539  0.58069397  0.33150306  1
  Co  Co465  1  0.75274539  0.41930601  0.33150306  1
  Co  Co466  1  0.66849693  0.58069397  0.24725459  1
  Co  Co467  1  0.75274539  0.41930601  0.66849693  1
  Co  Co468  1  0.66849693  0.41930601  0.24725459  1
  Co  Co469  1  0.66849693  0.58069397  0.75274539  1
  Co  Co470  1  0.24725459  0.41930601  0.66849693  1
  Co  Co471  1  0.66849693  0.41930601  0.75274539  1
  Co  Co472  1  0.33150306  0.41930601  0.75274539  1
  Co  Co473  1  0.24725459  0.41930601  0.33150306  1
  Co  Co474  1  0.33150306  0.58069397  0.75274539  1
  Co  Co475  1  0.24725459  0.58069397  0.66849693  1
  Co  Co476  1  0.33150306  0.58069397  0.24725459  1
  Co  Co477  1  0.24725459  0.58069397  0.33150306  1
  Co  Co478  1  0.33150306  0.41930601  0.24725459  1
  Co  Co479  1  0.37362731  0.49999999  0.20513037  1
  Co  Co480  1  0.20513037  0.49999999  0.37362731  1
  Co  Co481  1  0.62637271  0.49999999  0.20513037  1
  Co  Co482  1  0.20513037  0.49999999  0.62637271  1
  Co  Co483  1  0.79486964  0.49999999  0.37362731  1
  Co  Co484  1  0.37362731  0.49999999  0.79486964  1
  Co  Co485  1  0.79486964  0.49999999  0.62637271  1
  Co  Co486  1  0.62637271  0.49999999  0.79486964  1
  Co  Co487  1  0.49999999  0.17722408  0.49999999  1
  Co  Co488  1  0.49999999  0.82277590  0.49999999  1
  Co  Co489  1  0.28937884  0.25791806  0.45787577  1
  Co  Co490  1  0.45787577  0.25791806  0.28937884  1
  Co  Co491  1  0.45787577  0.74208192  0.28937884  1
  Co  Co492  1  0.28937884  0.74208192  0.45787577  1
  Co  Co493  1  0.54212424  0.25791806  0.28937884  1
  Co  Co494  1  0.28937884  0.25791806  0.54212424  1
  Co  Co495  1  0.54212424  0.74208192  0.28937884  1
  Co  Co496  1  0.28937884  0.74208192  0.54212424  1
  Co  Co497  1  0.71062117  0.74208192  0.45787577  1
  Co  Co498  1  0.71062117  0.25791806  0.45787577  1
  Co  Co499  1  0.45787577  0.25791806  0.71062117  1
  Co  Co500  1  0.45787577  0.74208192  0.71062117  1
  Co  Co501  1  0.71062117  0.74208192  0.54212424  1
  Co  Co502  1  0.71062117  0.25791806  0.54212424  1
  Co  Co503  1  0.54212424  0.25791806  0.71062117  1
  Co  Co504  1  0.54212424  0.74208192  0.71062117  1
  Co  Co505  1  0.45787577  0.17722408  0.45787577  1
  Co  Co506  1  0.45787577  0.82277590  0.45787577  1
  Co  Co507  1  0.45787577  0.17722408  0.54212424  1
  Co  Co508  1  0.54212424  0.17722408  0.45787577  1
  Co  Co509  1  0.54212424  0.82277590  0.45787577  1
  Co  Co510  1  0.45787577  0.82277590  0.54212424  1
  Co  Co511  1  0.54212424  0.17722408  0.54212424  1
  Co  Co512  1  0.54212424  0.82277590  0.54212424  1
  Co  Co513  1  0.20513037  0.41930601  0.37362731  1
  Co  Co514  1  0.37362731  0.58069397  0.20513037  1
  Co  Co515  1  0.37362731  0.41930601  0.20513037  1
  Co  Co516  1  0.20513037  0.58069397  0.37362731  1
  Co  Co517  1  0.62637271  0.41930601  0.20513037  1
  Co  Co518  1  0.62637271  0.58069397  0.20513037  1
  Co  Co519  1  0.20513037  0.41930601  0.62637271  1
  Co  Co520  1  0.20513037  0.58069397  0.62637271  1
  Co  Co521  1  0.79486964  0.41930601  0.37362731  1
  Co  Co522  1  0.79486964  0.58069397  0.37362731  1
  Co  Co523  1  0.37362731  0.58069397  0.79486964  1
  Co  Co524  1  0.37362731  0.41930601  0.79486964  1
  Co  Co525  1  0.79486964  0.58069397  0.62637271  1
  Co  Co526  1  0.79486964  0.41930601  0.62637271  1
  Co  Co527  1  0.62637271  0.41930601  0.79486964  1
  Co  Co528  1  0.62637271  0.58069397  0.79486964  1
  Pt  Pt529  1  0.49999999  0.45965301  0.45787577  1
  Pt  Pt530  1  0.45787577  0.45965301  0.49999999  1
  Pt  Pt531  1  0.49999999  0.54034699  0.45787577  1
  Pt  Pt532  1  0.45787577  0.54034699  0.49999999  1
  Pt  Pt533  1  0.54212424  0.45965301  0.49999999  1
  Pt  Pt534  1  0.49999999  0.45965301  0.54212424  1
  Pt  Pt535  1  0.49999999  0.54034699  0.54212424  1
  Pt  Pt536  1  0.54212424  0.54034699  0.49999999  1
  Pt  Pt537  1  0.58424846  0.45965301  0.45787577  1
  Pt  Pt538  1  0.45787577  0.45965301  0.58424846  1
  Pt  Pt539  1  0.45787577  0.45965301  0.41575153  1
  Pt  Pt540  1  0.41575153  0.45965301  0.45787577  1
  Pt  Pt541  1  0.58424846  0.54034699  0.45787577  1
  Pt  Pt542  1  0.45787577  0.54034699  0.58424846  1
  Pt  Pt543  1  0.45787577  0.54034699  0.41575153  1
  Pt  Pt544  1  0.41575153  0.54034699  0.45787577  1
  Pt  Pt545  1  0.58424846  0.45965301  0.54212424  1
  Pt  Pt546  1  0.54212424  0.45965301  0.58424846  1
  Pt  Pt547  1  0.54212424  0.45965301  0.41575153  1
  Pt  Pt548  1  0.41575153  0.45965301  0.54212424  1
  Pt  Pt549  1  0.58424846  0.54034699  0.54212424  1
  Pt  Pt550  1  0.54212424  0.54034699  0.58424846  1
  Pt  Pt551  1  0.54212424  0.54034699  0.41575153  1
  Pt  Pt552  1  0.41575153  0.54034699  0.54212424  1
  Pt  Pt553  1  0.45787577  0.37895904  0.49999999  1
  Pt  Pt554  1  0.49999999  0.37895904  0.45787577  1
  Pt  Pt555  1  0.54212424  0.37895904  0.49999999  1
  Pt  Pt556  1  0.49999999  0.37895904  0.54212424  1
  Pt  Pt557  1  0.45787577  0.62104097  0.49999999  1
  Pt  Pt558  1  0.49999999  0.62104097  0.45787577  1
  Pt  Pt559  1  0.54212424  0.62104097  0.49999999  1
  Pt  Pt560  1  0.49999999  0.62104097  0.54212424  1
  Pt  Pt561  1  0.49999999  0.45965301  0.37362731  1
  Pt  Pt562  1  0.37362731  0.45965301  0.49999999  1
  Pt  Pt563  1  0.49999999  0.54034699  0.37362731  1
  Pt  Pt564  1  0.37362731  0.54034699  0.49999999  1
  Pt  Pt565  1  0.62637271  0.45965301  0.49999999  1
  Pt  Pt566  1  0.49999999  0.45965301  0.62637271  1
  Pt  Pt567  1  0.62637271  0.54034699  0.49999999  1
  Pt  Pt568  1  0.49999999  0.54034699  0.62637271  1
  Pt  Pt569  1  0.58424846  0.37895904  0.45787577  1
  Pt  Pt570  1  0.45787577  0.37895904  0.58424846  1
  Pt  Pt571  1  0.45787577  0.37895904  0.41575153  1
  Pt  Pt572  1  0.41575153  0.37895904  0.45787577  1
  Pt  Pt573  1  0.58424846  0.37895904  0.54212424  1
  Pt  Pt574  1  0.54212424  0.37895904  0.58424846  1
  Pt  Pt575  1  0.54212424  0.37895904  0.41575153  1
  Pt  Pt576  1  0.41575153  0.37895904  0.54212424  1
  Pt  Pt577  1  0.58424846  0.62104097  0.45787577  1
  Pt  Pt578  1  0.45787577  0.62104097  0.58424846  1
  Pt  Pt579  1  0.45787577  0.62104097  0.41575153  1
  Pt  Pt580  1  0.41575153  0.62104097  0.45787577  1
  Pt  Pt581  1  0.58424846  0.62104097  0.54212424  1
  Pt  Pt582  1  0.54212424  0.62104097  0.58424846  1
  Pt  Pt583  1  0.54212424  0.62104097  0.41575153  1
  Pt  Pt584  1  0.41575153  0.62104097  0.54212424  1
  Pt  Pt585  1  0.58424846  0.45965301  0.37362731  1
  Pt  Pt586  1  0.37362731  0.45965301  0.58424846  1
  Pt  Pt587  1  0.37362731  0.45965301  0.41575153  1
  Pt  Pt588  1  0.41575153  0.45965301  0.37362731  1
  Pt  Pt589  1  0.58424846  0.54034699  0.37362731  1
  Pt  Pt590  1  0.37362731  0.54034699  0.58424846  1
  Pt  Pt591  1  0.37362731  0.54034699  0.41575153  1
  Pt  Pt592  1  0.41575153  0.54034699  0.37362731  1
  Pt  Pt593  1  0.62637271  0.45965301  0.58424846  1
  Pt  Pt594  1  0.62637271  0.45965301  0.41575153  1
  Pt  Pt595  1  0.58424846  0.45965301  0.62637271  1
  Pt  Pt596  1  0.41575153  0.45965301  0.62637271  1
  Pt  Pt597  1  0.62637271  0.54034699  0.58424846  1
  Pt  Pt598  1  0.58424846  0.54034699  0.62637271  1
  Pt  Pt599  1  0.62637271  0.54034699  0.41575153  1
  Pt  Pt600  1  0.41575153  0.54034699  0.62637271  1
  Pt  Pt601  1  0.49999999  0.37895904  0.37362731  1
  Pt  Pt602  1  0.37362731  0.37895904  0.49999999  1
  Pt  Pt603  1  0.49999999  0.62104097  0.37362731  1
  Pt  Pt604  1  0.37362731  0.62104097  0.49999999  1
  Pt  Pt605  1  0.62637271  0.37895904  0.49999999  1
  Pt  Pt606  1  0.49999999  0.37895904  0.62637271  1
  Pt  Pt607  1  0.62637271  0.62104097  0.49999999  1
  Pt  Pt608  1  0.49999999  0.62104097  0.62637271  1
  Pt  Pt609  1  0.66849693  0.45965301  0.45787577  1
  Pt  Pt610  1  0.45787577  0.45965301  0.66849693  1
  Pt  Pt611  1  0.45787577  0.45965301  0.33150306  1
  Pt  Pt612  1  0.33150306  0.45965301  0.45787577  1
  Pt  Pt613  1  0.66849693  0.54034699  0.45787577  1
  Pt  Pt614  1  0.45787577  0.54034699  0.33150306  1
  Pt  Pt615  1  0.45787577  0.54034699  0.66849693  1
  Pt  Pt616  1  0.33150306  0.54034699  0.45787577  1
  Pt  Pt617  1  0.66849693  0.45965301  0.54212424  1
  Pt  Pt618  1  0.54212424  0.45965301  0.33150306  1
  Pt  Pt619  1  0.54212424  0.45965301  0.66849693  1
  Pt  Pt620  1  0.33150306  0.45965301  0.54212424  1
  Pt  Pt621  1  0.66849693  0.54034699  0.54212424  1
  Pt  Pt622  1  0.54212424  0.54034699  0.33150306  1
  Pt  Pt623  1  0.54212424  0.54034699  0.66849693  1
  Pt  Pt624  1  0.33150306  0.54034699  0.54212424  1
  Pt  Pt625  1  0.58424846  0.37895904  0.37362731  1
  Pt  Pt626  1  0.37362731  0.37895904  0.58424846  1
  Pt  Pt627  1  0.37362731  0.37895904  0.41575153  1
  Pt  Pt628  1  0.41575153  0.37895904  0.37362731  1
  Pt  Pt629  1  0.58424846  0.62104097  0.37362731  1
  Pt  Pt630  1  0.41575153  0.62104097  0.37362731  1
  Pt  Pt631  1  0.37362731  0.62104097  0.58424846  1
  Pt  Pt632  1  0.37362731  0.62104097  0.41575153  1
  Pt  Pt633  1  0.62637271  0.37895904  0.58424846  1
  Pt  Pt634  1  0.58424846  0.37895904  0.62637271  1
  Pt  Pt635  1  0.62637271  0.37895904  0.41575153  1
  Pt  Pt636  1  0.41575153  0.37895904  0.62637271  1
  Pt  Pt637  1  0.62637271  0.62104097  0.41575153  1
  Pt  Pt638  1  0.62637271  0.62104097  0.58424846  1
  Pt  Pt639  1  0.58424846  0.62104097  0.62637271  1
  Pt  Pt640  1  0.41575153  0.62104097  0.62637271  1
  Pt  Pt641  1  0.49999999  0.29826506  0.45787577  1
  Pt  Pt642  1  0.45787577  0.29826506  0.49999999  1
  Pt  Pt643  1  0.49999999  0.29826506  0.54212424  1
  Pt  Pt644  1  0.54212424  0.29826506  0.49999999  1
  Pt  Pt645  1  0.45787577  0.70173495  0.49999999  1
  Pt  Pt646  1  0.49999999  0.70173495  0.45787577  1
  Pt  Pt647  1  0.54212424  0.70173495  0.49999999  1
  Pt  Pt648  1  0.49999999  0.70173495  0.54212424  1
  Pt  Pt649  1  0.66849693  0.37895904  0.45787577  1
  Pt  Pt650  1  0.45787577  0.37895904  0.66849693  1
  Pt  Pt651  1  0.45787577  0.37895904  0.33150306  1
  Pt  Pt652  1  0.33150306  0.37895904  0.45787577  1
  Pt  Pt653  1  0.66849693  0.37895904  0.54212424  1
  Pt  Pt654  1  0.54212424  0.37895904  0.66849693  1
  Pt  Pt655  1  0.33150306  0.37895904  0.54212424  1
  Pt  Pt656  1  0.54212424  0.37895904  0.33150306  1
  Pt  Pt657  1  0.66849693  0.62104097  0.45787577  1
  Pt  Pt658  1  0.45787577  0.62104097  0.66849693  1
  Pt  Pt659  1  0.45787577  0.62104097  0.33150306  1
  Pt  Pt660  1  0.33150306  0.62104097  0.45787577  1
  Pt  Pt661  1  0.66849693  0.62104097  0.54212424  1
  Pt  Pt662  1  0.54212424  0.62104097  0.33150306  1
  Pt  Pt663  1  0.54212424  0.62104097  0.66849693  1
  Pt  Pt664  1  0.33150306  0.62104097  0.54212424  1
  Pt  Pt665  1  0.49999999  0.45965301  0.28937884  1
  Pt  Pt666  1  0.28937884  0.45965301  0.49999999  1
  Pt  Pt667  1  0.49999999  0.54034699  0.28937884  1
  Pt  Pt668  1  0.28937884  0.54034699  0.49999999  1
  Pt  Pt669  1  0.66849693  0.45965301  0.37362731  1
  Pt  Pt670  1  0.37362731  0.45965301  0.66849693  1
  Pt  Pt671  1  0.37362731  0.45965301  0.33150306  1
  Pt  Pt672  1  0.33150306  0.45965301  0.37362731  1
  Pt  Pt673  1  0.66849693  0.54034699  0.37362731  1
  Pt  Pt674  1  0.37362731  0.54034699  0.66849693  1
  Pt  Pt675  1  0.37362731  0.54034699  0.33150306  1
  Pt  Pt676  1  0.33150306  0.54034699  0.37362731  1
  Pt  Pt677  1  0.66849693  0.45965301  0.62637271  1
  Pt  Pt678  1  0.62637271  0.45965301  0.33150306  1
  Pt  Pt679  1  0.62637271  0.45965301  0.66849693  1
  Pt  Pt680  1  0.33150306  0.45965301  0.62637271  1
  Pt  Pt681  1  0.66849693  0.54034699  0.62637271  1
  Pt  Pt682  1  0.62637271  0.54034699  0.33150306  1
  Pt  Pt683  1  0.62637271  0.54034699  0.66849693  1
  Pt  Pt684  1  0.33150306  0.54034699  0.62637271  1
  Pt  Pt685  1  0.71062117  0.45965301  0.49999999  1
  Pt  Pt686  1  0.49999999  0.45965301  0.71062117  1
  Pt  Pt687  1  0.71062117  0.54034699  0.49999999  1
  Pt  Pt688  1  0.49999999  0.54034699  0.71062117  1
  Pt  Pt689  1  0.58424846  0.29826506  0.45787577  1
  Pt  Pt690  1  0.45787577  0.29826506  0.41575153  1
  Pt  Pt691  1  0.45787577  0.29826506  0.58424846  1
  Pt  Pt692  1  0.41575153  0.29826506  0.45787577  1
  Pt  Pt693  1  0.58424846  0.29826506  0.54212424  1
  Pt  Pt694  1  0.54212424  0.29826506  0.58424846  1
  Pt  Pt695  1  0.54212424  0.29826506  0.41575153  1
  Pt  Pt696  1  0.41575153  0.29826506  0.54212424  1
  Pt  Pt697  1  0.58424846  0.70173495  0.45787577  1
  Pt  Pt698  1  0.45787577  0.70173495  0.41575153  1
  Pt  Pt699  1  0.45787577  0.70173495  0.58424846  1
  Pt  Pt700  1  0.41575153  0.70173495  0.45787577  1
  Pt  Pt701  1  0.58424846  0.70173495  0.54212424  1
  Pt  Pt702  1  0.54212424  0.70173495  0.41575153  1
  Pt  Pt703  1  0.54212424  0.70173495  0.58424846  1
  Pt  Pt704  1  0.41575153  0.70173495  0.54212424  1
  Pt  Pt705  1  0.58424846  0.45965301  0.28937884  1
  Pt  Pt706  1  0.28937884  0.45965301  0.58424846  1
  Pt  Pt707  1  0.41575153  0.45965301  0.28937884  1
  Pt  Pt708  1  0.28937884  0.45965301  0.41575153  1
  Pt  Pt709  1  0.58424846  0.54034699  0.28937884  1
  Pt  Pt710  1  0.28937884  0.54034699  0.58424846  1
  Pt  Pt711  1  0.41575153  0.54034699  0.28937884  1
  Pt  Pt712  1  0.28937884  0.54034699  0.41575153  1
  Pt  Pt713  1  0.71062117  0.45965301  0.41575153  1
  Pt  Pt714  1  0.71062117  0.45965301  0.58424846  1
  Pt  Pt715  1  0.58424846  0.45965301  0.71062117  1
  Pt  Pt716  1  0.41575153  0.45965301  0.71062117  1
  Pt  Pt717  1  0.71062117  0.54034699  0.58424846  1
  Pt  Pt718  1  0.71062117  0.54034699  0.41575153  1
  Pt  Pt719  1  0.41575153  0.54034699  0.71062117  1
  Pt  Pt720  1  0.58424846  0.54034699  0.71062117  1
  Pt  Pt721  1  0.49999999  0.29826506  0.37362731  1
  Pt  Pt722  1  0.37362731  0.29826506  0.49999999  1
  Pt  Pt723  1  0.62637271  0.29826506  0.49999999  1
  Pt  Pt724  1  0.49999999  0.29826506  0.62637271  1
  Pt  Pt725  1  0.49999999  0.70173495  0.37362731  1
  Pt  Pt726  1  0.37362731  0.70173495  0.49999999  1
  Pt  Pt727  1  0.62637271  0.70173495  0.49999999  1
  Pt  Pt728  1  0.49999999  0.70173495  0.62637271  1
  Pt  Pt729  1  0.28937884  0.37895904  0.49999999  1
  Pt  Pt730  1  0.49999999  0.37895904  0.28937884  1
  Pt  Pt731  1  0.66849693  0.37895904  0.37362731  1
  Pt  Pt732  1  0.37362731  0.37895904  0.66849693  1
  Pt  Pt733  1  0.37362731  0.37895904  0.33150306  1
  Pt  Pt734  1  0.33150306  0.37895904  0.37362731  1
  Pt  Pt735  1  0.49999999  0.62104097  0.28937884  1
  Pt  Pt736  1  0.28937884  0.62104097  0.49999999  1
  Pt  Pt737  1  0.66849693  0.62104097  0.37362731  1
  Pt  Pt738  1  0.37362731  0.62104097  0.33150306  1
  Pt  Pt739  1  0.37362731  0.62104097  0.66849693  1
  Pt  Pt740  1  0.33150306  0.62104097  0.37362731  1
  Pt  Pt741  1  0.66849693  0.37895904  0.62637271  1
  Pt  Pt742  1  0.62637271  0.37895904  0.33150306  1
  Pt  Pt743  1  0.62637271  0.37895904  0.66849693  1
  Pt  Pt744  1  0.33150306  0.37895904  0.62637271  1
  Pt  Pt745  1  0.49999999  0.37895904  0.71062117  1
  Pt  Pt746  1  0.71062117  0.37895904  0.49999999  1
  Pt  Pt747  1  0.66849693  0.62104097  0.62637271  1
  Pt  Pt748  1  0.62637271  0.62104097  0.66849693  1
  Pt  Pt749  1  0.62637271  0.62104097  0.33150306  1
  Pt  Pt750  1  0.33150306  0.62104097  0.62637271  1
  Pt  Pt751  1  0.71062117  0.62104097  0.49999999  1
  Pt  Pt752  1  0.49999999  0.62104097  0.71062117  1
  Pt  Pt753  1  0.58424846  0.29826506  0.37362731  1
  Pt  Pt754  1  0.37362731  0.29826506  0.58424846  1
  Pt  Pt755  1  0.37362731  0.29826506  0.41575153  1
  Pt  Pt756  1  0.41575153  0.29826506  0.37362731  1
  Pt  Pt757  1  0.58424846  0.29826506  0.62637271  1
  Pt  Pt758  1  0.62637271  0.29826506  0.58424846  1
  Pt  Pt759  1  0.62637271  0.29826506  0.41575153  1
  Pt  Pt760  1  0.41575153  0.29826506  0.62637271  1
  Pt  Pt761  1  0.58424846  0.70173495  0.37362731  1
  Pt  Pt762  1  0.37362731  0.70173495  0.58424846  1
  Pt  Pt763  1  0.37362731  0.70173495  0.41575153  1
  Pt  Pt764  1  0.41575153  0.70173495  0.37362731  1
  Pt  Pt765  1  0.62637271  0.70173495  0.58424846  1
  Pt  Pt766  1  0.62637271  0.70173495  0.41575153  1
  Pt  Pt767  1  0.58424846  0.70173495  0.62637271  1
  Pt  Pt768  1  0.41575153  0.70173495  0.62637271  1
  Pt  Pt769  1  0.58424846  0.37895904  0.28937884  1
  Pt  Pt770  1  0.28937884  0.37895904  0.58424846  1
  Pt  Pt771  1  0.28937884  0.37895904  0.41575153  1
  Pt  Pt772  1  0.41575153  0.37895904  0.28937884  1
  Pt  Pt773  1  0.58424846  0.62104097  0.28937884  1
  Pt  Pt774  1  0.41575153  0.62104097  0.28937884  1
  Pt  Pt775  1  0.28937884  0.62104097  0.58424846  1
  Pt  Pt776  1  0.28937884  0.62104097  0.41575153  1
  Pt  Pt777  1  0.71062117  0.37895904  0.41575153  1
  Pt  Pt778  1  0.71062117  0.37895904  0.58424846  1
  Pt  Pt779  1  0.58424846  0.37895904  0.71062117  1
  Pt  Pt780  1  0.41575153  0.37895904  0.71062117  1
  Pt  Pt781  1  0.71062117  0.62104097  0.41575153  1
  Pt  Pt782  1  0.71062117  0.62104097  0.58424846  1
  Pt  Pt783  1  0.58424846  0.62104097  0.71062117  1
  Pt  Pt784  1  0.41575153  0.62104097  0.71062117  1
  Pt  Pt785  1  0.75274539  0.45965301  0.45787577  1
  Pt  Pt786  1  0.45787577  0.45965301  0.75274539  1
  Pt  Pt787  1  0.45787577  0.45965301  0.24725459  1
  Pt  Pt788  1  0.24725459  0.45965301  0.45787577  1
  Pt  Pt789  1  0.75274539  0.54034699  0.45787577  1
  Pt  Pt790  1  0.45787577  0.54034699  0.24725459  1
  Pt  Pt791  1  0.24725459  0.54034699  0.45787577  1
  Pt  Pt792  1  0.45787577  0.54034699  0.75274539  1
  Pt  Pt793  1  0.54212424  0.45965301  0.24725459  1
  Pt  Pt794  1  0.54212424  0.45965301  0.75274539  1
  Pt  Pt795  1  0.75274539  0.45965301  0.54212424  1
  Pt  Pt796  1  0.24725459  0.45965301  0.54212424  1
  Pt  Pt797  1  0.75274539  0.54034699  0.54212424  1
  Pt  Pt798  1  0.54212424  0.54034699  0.24725459  1
  Pt  Pt799  1  0.54212424  0.54034699  0.75274539  1
  Pt  Pt800  1  0.24725459  0.54034699  0.54212424  1
  Pt  Pt801  1  0.66849693  0.29826506  0.45787577  1
  Pt  Pt802  1  0.45787577  0.29826506  0.66849693  1
  Pt  Pt803  1  0.33150306  0.29826506  0.45787577  1
  Pt  Pt804  1  0.45787577  0.29826506  0.33150306  1
  Pt  Pt805  1  0.66849693  0.29826506  0.54212424  1
  Pt  Pt806  1  0.54212424  0.29826506  0.33150306  1
  Pt  Pt807  1  0.54212424  0.29826506  0.66849693  1
  Pt  Pt808  1  0.33150306  0.29826506  0.54212424  1
  Pt  Pt809  1  0.66849693  0.70173495  0.45787577  1
  Pt  Pt810  1  0.45787577  0.70173495  0.33150306  1
  Pt  Pt811  1  0.45787577  0.70173495  0.66849693  1
  Pt  Pt812  1  0.33150306  0.70173495  0.45787577  1
  Pt  Pt813  1  0.66849693  0.70173495  0.54212424  1
  Pt  Pt814  1  0.54212424  0.70173495  0.33150306  1
  Pt  Pt815  1  0.54212424  0.70173495  0.66849693  1
  Pt  Pt816  1  0.33150306  0.70173495  0.54212424  1
  Pt  Pt817  1  0.66849693  0.45965301  0.28937884  1
  Pt  Pt818  1  0.28937884  0.45965301  0.66849693  1
  Pt  Pt819  1  0.28937884  0.45965301  0.33150306  1
  Pt  Pt820  1  0.33150306  0.45965301  0.28937884  1
  Pt  Pt821  1  0.66849693  0.54034699  0.28937884  1
  Pt  Pt822  1  0.28937884  0.54034699  0.66849693  1
  Pt  Pt823  1  0.33150306  0.54034699  0.28937884  1
  Pt  Pt824  1  0.28937884  0.54034699  0.33150306  1
  Pt  Pt825  1  0.71062117  0.45965301  0.33150306  1
  Pt  Pt826  1  0.66849693  0.45965301  0.71062117  1
  Pt  Pt827  1  0.71062117  0.45965301  0.66849693  1
  Pt  Pt828  1  0.33150306  0.45965301  0.71062117  1
  Pt  Pt829  1  0.71062117  0.54034699  0.33150306  1
  Pt  Pt830  1  0.66849693  0.54034699  0.71062117  1
  Pt  Pt831  1  0.71062117  0.54034699  0.66849693  1
  Pt  Pt832  1  0.33150306  0.54034699  0.71062117  1
  Pt  Pt833  1  0.75274539  0.37895904  0.45787577  1
  Pt  Pt834  1  0.45787577  0.37895904  0.75274539  1
  Pt  Pt835  1  0.45787577  0.37895904  0.24725459  1
  Pt  Pt836  1  0.24725459  0.37895904  0.45787577  1
  Pt  Pt837  1  0.54212424  0.37895904  0.75274539  1
  Pt  Pt838  1  0.75274539  0.37895904  0.54212424  1
  Pt  Pt839  1  0.54212424  0.37895904  0.24725459  1
  Pt  Pt840  1  0.24725459  0.37895904  0.54212424  1
  Pt  Pt841  1  0.75274539  0.62104097  0.45787577  1
  Pt  Pt842  1  0.45787577  0.62104097  0.24725459  1
  Pt  Pt843  1  0.24725459  0.62104097  0.45787577  1
  Pt  Pt844  1  0.45787577  0.62104097  0.75274539  1
  Pt  Pt845  1  0.54212424  0.62104097  0.24725459  1
  Pt  Pt846  1  0.75274539  0.62104097  0.54212424  1
  Pt  Pt847  1  0.54212424  0.62104097  0.75274539  1
  Pt  Pt848  1  0.24725459  0.62104097  0.54212424  1
  Pt  Pt849  1  0.75274539  0.45965301  0.37362731  1
  Pt  Pt850  1  0.37362731  0.45965301  0.24725459  1
  Pt  Pt851  1  0.37362731  0.45965301  0.75274539  1
  Pt  Pt852  1  0.24725459  0.45965301  0.37362731  1
  Pt  Pt853  1  0.75274539  0.54034699  0.37362731  1
  Pt  Pt854  1  0.37362731  0.54034699  0.75274539  1
  Pt  Pt855  1  0.37362731  0.54034699  0.24725459  1
  Pt  Pt856  1  0.24725459  0.54034699  0.37362731  1
  Pt  Pt857  1  0.62637271  0.45965301  0.24725459  1
  Pt  Pt858  1  0.75274539  0.45965301  0.62637271  1
  Pt  Pt859  1  0.24725459  0.45965301  0.62637271  1
  Pt  Pt860  1  0.62637271  0.45965301  0.75274539  1
  Pt  Pt861  1  0.75274539  0.54034699  0.62637271  1
  Pt  Pt862  1  0.62637271  0.54034699  0.24725459  1
  Pt  Pt863  1  0.62637271  0.54034699  0.75274539  1
  Pt  Pt864  1  0.24725459  0.54034699  0.62637271  1
  Pt  Pt865  1  0.45787577  0.21757108  0.49999999  1
  Pt  Pt866  1  0.49999999  0.21757108  0.45787577  1
  Pt  Pt867  1  0.54212424  0.21757108  0.49999999  1
  Pt  Pt868  1  0.49999999  0.21757108  0.54212424  1
  Pt  Pt869  1  0.49999999  0.78242892  0.45787577  1
  Pt  Pt870  1  0.45787577  0.78242892  0.49999999  1
  Pt  Pt871  1  0.49999999  0.78242892  0.54212424  1
  Pt  Pt872  1  0.54212424  0.78242892  0.49999999  1
  Pt  Pt873  1  0.28937884  0.29826506  0.49999999  1
  Pt  Pt874  1  0.49999999  0.29826506  0.28937884  1
  Pt  Pt875  1  0.66849693  0.29826506  0.37362731  1
  Pt  Pt876  1  0.37362731  0.29826506  0.66849693  1
  Pt  Pt877  1  0.33150306  0.29826506  0.37362731  1
  Pt  Pt878  1  0.37362731  0.29826506  0.33150306  1
  Pt  Pt879  1  0.66849693  0.29826506  0.62637271  1
  Pt  Pt880  1  0.62637271  0.29826506  0.66849693  1
  Pt  Pt881  1  0.33150306  0.29826506  0.62637271  1
  Pt  Pt882  1  0.62637271  0.29826506  0.33150306  1
  Pt  Pt883  1  0.49999999  0.70173495  0.28937884  1
  Pt  Pt884  1  0.28937884  0.70173495  0.49999999  1
  Pt  Pt885  1  0.71062117  0.29826506  0.49999999  1
  Pt  Pt886  1  0.49999999  0.29826506  0.71062117  1
  Pt  Pt887  1  0.66849693  0.70173495  0.37362731  1
  Pt  Pt888  1  0.37362731  0.70173495  0.33150306  1
  Pt  Pt889  1  0.33150306  0.70173495  0.37362731  1
  Pt  Pt890  1  0.37362731  0.70173495  0.66849693  1
  Pt  Pt891  1  0.66849693  0.70173495  0.62637271  1
  Pt  Pt892  1  0.62637271  0.70173495  0.33150306  1
  Pt  Pt893  1  0.62637271  0.70173495  0.66849693  1
  Pt  Pt894  1  0.33150306  0.70173495  0.62637271  1
  Pt  Pt895  1  0.71062117  0.70173495  0.49999999  1
  Pt  Pt896  1  0.49999999  0.70173495  0.71062117  1
  Pt  Pt897  1  0.66849693  0.37895904  0.28937884  1
  Pt  Pt898  1  0.28937884  0.37895904  0.66849693  1
  Pt  Pt899  1  0.33150306  0.37895904  0.28937884  1
  Pt  Pt900  1  0.28937884  0.37895904  0.33150306  1
  Pt  Pt901  1  0.66849693  0.62104097  0.28937884  1
  Pt  Pt902  1  0.28937884  0.62104097  0.66849693  1
  Pt  Pt903  1  0.33150306  0.62104097  0.28937884  1
  Pt  Pt904  1  0.28937884  0.62104097  0.33150306  1
  Pt  Pt905  1  0.71062117  0.37895904  0.66849693  1
  Pt  Pt906  1  0.71062117  0.37895904  0.33150306  1
  Pt  Pt907  1  0.33150306  0.37895904  0.71062117  1
  Pt  Pt908  1  0.66849693  0.37895904  0.71062117  1
  Pt  Pt909  1  0.71062117  0.62104097  0.33150306  1
  Pt  Pt910  1  0.66849693  0.62104097  0.71062117  1
  Pt  Pt911  1  0.71062117  0.62104097  0.66849693  1
  Pt  Pt912  1  0.33150306  0.62104097  0.71062117  1
  Pt  Pt913  1  0.49999999  0.45965301  0.20513037  1
  Pt  Pt914  1  0.20513037  0.45965301  0.49999999  1
  Pt  Pt915  1  0.49999999  0.54034699  0.20513037  1
  Pt  Pt916  1  0.20513037  0.54034699  0.49999999  1
  Pt  Pt917  1  0.49999999  0.45965301  0.79486964  1
  Pt  Pt918  1  0.79486964  0.45965301  0.49999999  1
  Pt  Pt919  1  0.79486964  0.54034699  0.49999999  1
  Pt  Pt920  1  0.49999999  0.54034699  0.79486964  1
  Pt  Pt921  1  0.45787577  0.21757108  0.58424846  1
  Pt  Pt922  1  0.58424846  0.21757108  0.45787577  1
  Pt  Pt923  1  0.41575153  0.21757108  0.45787577  1
  Pt  Pt924  1  0.45787577  0.21757108  0.41575153  1
  Pt  Pt925  1  0.58424846  0.21757108  0.54212424  1
  Pt  Pt926  1  0.54212424  0.21757108  0.58424846  1
  Pt  Pt927  1  0.54212424  0.21757108  0.41575153  1
  Pt  Pt928  1  0.41575153  0.21757108  0.54212424  1
  Pt  Pt929  1  0.58424846  0.78242892  0.45787577  1
  Pt  Pt930  1  0.41575153  0.78242892  0.45787577  1
  Pt  Pt931  1  0.45787577  0.78242892  0.41575153  1
  Pt  Pt932  1  0.45787577  0.78242892  0.58424846  1
  Pt  Pt933  1  0.58424846  0.78242892  0.54212424  1
  Pt  Pt934  1  0.54212424  0.78242892  0.41575153  1
  Pt  Pt935  1  0.54212424  0.78242892  0.58424846  1
  Pt  Pt936  1  0.41575153  0.78242892  0.54212424  1
  Pt  Pt937  1  0.28937884  0.29826506  0.58424846  1
  Pt  Pt938  1  0.58424846  0.29826506  0.28937884  1
  Pt  Pt939  1  0.28937884  0.29826506  0.41575153  1
  Pt  Pt940  1  0.41575153  0.29826506  0.28937884  1
  Pt  Pt941  1  0.58424846  0.70173495  0.28937884  1
  Pt  Pt942  1  0.41575153  0.70173495  0.28937884  1
  Pt  Pt943  1  0.28937884  0.70173495  0.58424846  1
  Pt  Pt944  1  0.28937884  0.70173495  0.41575153  1
  Pt  Pt945  1  0.58424846  0.29826506  0.71062117  1
  Pt  Pt946  1  0.71062117  0.29826506  0.58424846  1
  Pt  Pt947  1  0.71062117  0.29826506  0.41575153  1
  Pt  Pt948  1  0.41575153  0.29826506  0.71062117  1
  Pt  Pt949  1  0.71062117  0.70173495  0.41575153  1
  Pt  Pt950  1  0.71062117  0.70173495  0.58424846  1
  Pt  Pt951  1  0.58424846  0.70173495  0.71062117  1
  Pt  Pt952  1  0.41575153  0.70173495  0.71062117  1
  Pt  Pt953  1  0.75274539  0.37895904  0.37362731  1
  Pt  Pt954  1  0.37362731  0.37895904  0.24725459  1
  Pt  Pt955  1  0.37362731  0.37895904  0.75274539  1
  Pt  Pt956  1  0.24725459  0.37895904  0.37362731  1
  Pt  Pt957  1  0.75274539  0.62104097  0.37362731  1
  Pt  Pt958  1  0.37362731  0.62104097  0.24725459  1
  Pt  Pt959  1  0.24725459  0.62104097  0.37362731  1
  Pt  Pt960  1  0.37362731  0.62104097  0.75274539  1
  Pt  Pt961  1  0.75274539  0.37895904  0.62637271  1
  Pt  Pt962  1  0.62637271  0.37895904  0.24725459  1
  Pt  Pt963  1  0.24725459  0.37895904  0.62637271  1
  Pt  Pt964  1  0.62637271  0.37895904  0.75274539  1
  Pt  Pt965  1  0.62637271  0.62104097  0.24725459  1
  Pt  Pt966  1  0.75274539  0.62104097  0.62637271  1
  Pt  Pt967  1  0.62637271  0.62104097  0.75274539  1
  Pt  Pt968  1  0.24725459  0.62104097  0.62637271  1
  Pt  Pt969  1  0.58424846  0.45965301  0.20513037  1
  Pt  Pt970  1  0.20513037  0.45965301  0.41575153  1
  Pt  Pt971  1  0.20513037  0.45965301  0.58424846  1
  Pt  Pt972  1  0.41575153  0.45965301  0.20513037  1
  Pt  Pt973  1  0.58424846  0.54034699  0.20513037  1
  Pt  Pt974  1  0.20513037  0.54034699  0.41575153  1
  Pt  Pt975  1  0.41575153  0.54034699  0.20513037  1
  Pt  Pt976  1  0.20513037  0.54034699  0.58424846  1
  Pt  Pt977  1  0.79486964  0.45965301  0.41575153  1
  Pt  Pt978  1  0.79486964  0.45965301  0.58424846  1
  Pt  Pt979  1  0.41575153  0.45965301  0.79486964  1
  Pt  Pt980  1  0.58424846  0.45965301  0.79486964  1
  Pt  Pt981  1  0.79486964  0.54034699  0.58424846  1
  Pt  Pt982  1  0.79486964  0.54034699  0.41575153  1
  Pt  Pt983  1  0.41575153  0.54034699  0.79486964  1
  Pt  Pt984  1  0.58424846  0.54034699  0.79486964  1
  Pt  Pt985  1  0.37362731  0.21757108  0.49999999  1
  Pt  Pt986  1  0.49999999  0.21757108  0.37362731  1
  Pt  Pt987  1  0.62637271  0.21757108  0.49999999  1
  Pt  Pt988  1  0.49999999  0.21757108  0.62637271  1
  Pt  Pt989  1  0.49999999  0.78242892  0.37362731  1
  Pt  Pt990  1  0.37362731  0.78242892  0.49999999  1
  Pt  Pt991  1  0.62637271  0.78242892  0.49999999  1
  Pt  Pt992  1  0.49999999  0.78242892  0.62637271  1
  Pt  Pt993  1  0.49999999  0.37895904  0.20513037  1
  Pt  Pt994  1  0.20513037  0.37895904  0.49999999  1
  Pt  Pt995  1  0.49999999  0.62104097  0.20513037  1
  Pt  Pt996  1  0.20513037  0.62104097  0.49999999  1
  Pt  Pt997  1  0.79486964  0.37895904  0.49999999  1
  Pt  Pt998  1  0.49999999  0.37895904  0.79486964  1
  Pt  Pt999  1  0.79486964  0.62104097  0.49999999  1
  Pt  Pt1000  1  0.49999999  0.62104097  0.79486964  1
  Pt  Pt1001  1  0.58424846  0.21757108  0.37362731  1
  Pt  Pt1002  1  0.41575153  0.21757108  0.37362731  1
  Pt  Pt1003  1  0.37362731  0.21757108  0.58424846  1
  Pt  Pt1004  1  0.37362731  0.21757108  0.41575153  1
  Pt  Pt1005  1  0.62637271  0.21757108  0.41575153  1
  Pt  Pt1006  1  0.41575153  0.21757108  0.62637271  1
  Pt  Pt1007  1  0.62637271  0.21757108  0.58424846  1
  Pt  Pt1008  1  0.58424846  0.21757108  0.62637271  1
  Pt  Pt1009  1  0.58424846  0.78242892  0.37362731  1
  Pt  Pt1010  1  0.37362731  0.78242892  0.41575153  1
  Pt  Pt1011  1  0.37362731  0.78242892  0.58424846  1
  Pt  Pt1012  1  0.41575153  0.78242892  0.37362731  1
  Pt  Pt1013  1  0.62637271  0.78242892  0.58424846  1
  Pt  Pt1014  1  0.62637271  0.78242892  0.41575153  1
  Pt  Pt1015  1  0.58424846  0.78242892  0.62637271  1
  Pt  Pt1016  1  0.41575153  0.78242892  0.62637271  1
  Pt  Pt1017  1  0.45787577  0.29826506  0.75274539  1
  Pt  Pt1018  1  0.75274539  0.29826506  0.45787577  1
  Pt  Pt1019  1  0.45787577  0.29826506  0.24725459  1
  Pt  Pt1020  1  0.24725459  0.29826506  0.45787577  1
  Pt  Pt1021  1  0.54212424  0.29826506  0.24725459  1
  Pt  Pt1022  1  0.54212424  0.29826506  0.75274539  1
  Pt  Pt1023  1  0.75274539  0.29826506  0.54212424  1
  Pt  Pt1024  1  0.24725459  0.29826506  0.54212424  1
  Pt  Pt1025  1  0.75274539  0.70173495  0.45787577  1
  Pt  Pt1026  1  0.45787577  0.70173495  0.24725459  1
  Pt  Pt1027  1  0.24725459  0.70173495  0.45787577  1
  Pt  Pt1028  1  0.45787577  0.70173495  0.75274539  1
  Pt  Pt1029  1  0.54212424  0.70173495  0.24725459  1
  Pt  Pt1030  1  0.75274539  0.70173495  0.54212424  1
  Pt  Pt1031  1  0.54212424  0.70173495  0.75274539  1
  Pt  Pt1032  1  0.24725459  0.70173495  0.54212424  1
  Pt  Pt1033  1  0.58424846  0.37895904  0.20513037  1
  Pt  Pt1034  1  0.41575153  0.37895904  0.20513037  1
  Pt  Pt1035  1  0.20513037  0.37895904  0.58424846  1
  Pt  Pt1036  1  0.20513037  0.37895904  0.41575153  1
  Pt  Pt1037  1  0.58424846  0.62104097  0.20513037  1
  Pt  Pt1038  1  0.41575153  0.62104097  0.20513037  1
  Pt  Pt1039  1  0.20513037  0.62104097  0.58424846  1
  Pt  Pt1040  1  0.20513037  0.62104097  0.41575153  1
  Pt  Pt1041  1  0.58424846  0.37895904  0.79486964  1
  Pt  Pt1042  1  0.79486964  0.37895904  0.41575153  1
  Pt  Pt1043  1  0.41575153  0.37895904  0.79486964  1
  Pt  Pt1044  1  0.79486964  0.37895904  0.58424846  1
  Pt  Pt1045  1  0.79486964  0.62104097  0.58424846  1
  Pt  Pt1046  1  0.79486964  0.62104097  0.41575153  1
  Pt  Pt1047  1  0.58424846  0.62104097  0.79486964  1
  Pt  Pt1048  1  0.41575153  0.62104097  0.79486964  1
  Pt  Pt1049  1  0.75274539  0.45965301  0.28937884  1
  Pt  Pt1050  1  0.28937884  0.45965301  0.75274539  1
  Pt  Pt1051  1  0.28937884  0.45965301  0.24725459  1
  Pt  Pt1052  1  0.24725459  0.45965301  0.28937884  1
  Pt  Pt1053  1  0.75274539  0.54034699  0.28937884  1
  Pt  Pt1054  1  0.28937884  0.54034699  0.75274539  1
  Pt  Pt1055  1  0.24725459  0.54034699  0.28937884  1
  Pt  Pt1056  1  0.28937884  0.54034699  0.24725459  1
  Pt  Pt1057  1  0.71062117  0.45965301  0.24725459  1
  Pt  Pt1058  1  0.75274539  0.45965301  0.71062117  1
  Pt  Pt1059  1  0.24725459  0.45965301  0.71062117  1
  Pt  Pt1060  1  0.71062117  0.45965301  0.75274539  1
  Pt  Pt1061  1  0.71062117  0.54034699  0.24725459  1
  Pt  Pt1062  1  0.71062117  0.54034699  0.75274539  1
  Pt  Pt1063  1  0.75274539  0.54034699  0.71062117  1
  Pt  Pt1064  1  0.24725459  0.54034699  0.71062117  1
  Pt  Pt1065  1  0.45787577  0.21757108  0.66849693  1
  Pt  Pt1066  1  0.66849693  0.21757108  0.45787577  1
  Pt  Pt1067  1  0.45787577  0.21757108  0.33150306  1
  Pt  Pt1068  1  0.33150306  0.21757108  0.45787577  1
  Pt  Pt1069  1  0.66849693  0.21757108  0.54212424  1
  Pt  Pt1070  1  0.54212424  0.21757108  0.66849693  1
  Pt  Pt1071  1  0.54212424  0.21757108  0.33150306  1
  Pt  Pt1072  1  0.33150306  0.21757108  0.54212424  1
  Pt  Pt1073  1  0.66849693  0.78242892  0.45787577  1
  Pt  Pt1074  1  0.45787577  0.78242892  0.33150306  1
  Pt  Pt1075  1  0.45787577  0.78242892  0.66849693  1
  Pt  Pt1076  1  0.33150306  0.78242892  0.45787577  1
  Pt  Pt1077  1  0.66849693  0.78242892  0.54212424  1
  Pt  Pt1078  1  0.54212424  0.78242892  0.66849693  1
  Pt  Pt1079  1  0.54212424  0.78242892  0.33150306  1
  Pt  Pt1080  1  0.33150306  0.78242892  0.54212424  1
