# generated using pymatgen
data_Co80Pt871
_symmetry_space_group_name_H-M   'P 1'
_cell_length_a   45.00000000
_cell_length_b   45.00000000
_cell_length_c   45.00000000
_cell_angle_alpha   90.00000000
_cell_angle_beta   90.00000000
_cell_angle_gamma   90.00000000
_symmetry_Int_Tables_number   1
_chemical_formula_structural   Co80Pt871
_chemical_formula_sum   'Co80 Pt871'
_cell_volume   91125.00000000
_cell_formula_units_Z   1
loop_
 _symmetry_equiv_pos_site_id
 _symmetry_equiv_pos_as_xyz
  1  'x, y, z'
loop_
 _atom_site_type_symbol
 _atom_site_label
 _atom_site_symmetry_multiplicity
 _atom_site_fract_x
 _atom_site_fract_y
 _atom_site_fract_z
 _atom_site_occupancy
  Co  Co0  1  0.49999999  0.54356471  0.36796538  1
  Co  Co1  1  0.49999999  0.45643528  0.36796538  1
  Co  Co2  1  0.49999999  0.54356471  0.63203464  1
  Co  Co3  1  0.49999999  0.45643528  0.63203464  1
  Co  Co4  1  0.58712942  0.54356471  0.36796538  1
  Co  Co5  1  0.41287057  0.54356471  0.36796538  1
  Co  Co6  1  0.58712942  0.45643528  0.36796538  1
  Co  Co7  1  0.41287057  0.45643528  0.36796538  1
  Co  Co8  1  0.58712942  0.54356471  0.63203464  1
  Co  Co9  1  0.41287057  0.54356471  0.63203464  1
  Co  Co10  1  0.58712942  0.45643528  0.63203464  1
  Co  Co11  1  0.41287057  0.45643528  0.63203464  1
  Co  Co12  1  0.49999999  0.63069413  0.36796538  1
  Co  Co13  1  0.49999999  0.63069413  0.63203464  1
  Co  Co14  1  0.49999999  0.36930586  0.36796538  1
  Co  Co15  1  0.49999999  0.36930586  0.63203464  1
  Co  Co16  1  0.58712942  0.63069413  0.36796538  1
  Co  Co17  1  0.41287057  0.63069413  0.36796538  1
  Co  Co18  1  0.58712942  0.63069413  0.63203464  1
  Co  Co19  1  0.41287057  0.63069413  0.63203464  1
  Co  Co20  1  0.58712942  0.36930586  0.36796538  1
  Co  Co21  1  0.41287057  0.36930586  0.36796538  1
  Co  Co22  1  0.58712942  0.36930586  0.63203464  1
  Co  Co23  1  0.41287057  0.36930586  0.63203464  1
  Co  Co24  1  0.67425884  0.54356471  0.36796538  1
  Co  Co25  1  0.32574115  0.54356471  0.36796538  1
  Co  Co26  1  0.67425884  0.45643528  0.36796538  1
  Co  Co27  1  0.32574115  0.45643528  0.36796538  1
  Co  Co28  1  0.67425884  0.54356471  0.63203464  1
  Co  Co29  1  0.32574115  0.54356471  0.63203464  1
  Co  Co30  1  0.67425884  0.45643528  0.63203464  1
  Co  Co31  1  0.32574115  0.45643528  0.63203464  1
  Co  Co32  1  0.49999999  0.71782355  0.36796538  1
  Co  Co33  1  0.67425884  0.63069413  0.36796538  1
  Co  Co34  1  0.32574115  0.63069413  0.36796538  1
  Co  Co35  1  0.49999999  0.71782355  0.63203464  1
  Co  Co36  1  0.67425884  0.63069413  0.63203464  1
  Co  Co37  1  0.32574115  0.63069413  0.63203464  1
  Co  Co38  1  0.67425884  0.36930586  0.36796538  1
  Co  Co39  1  0.32574115  0.36930586  0.36796538  1
  Co  Co40  1  0.49999999  0.28217644  0.36796538  1
  Co  Co41  1  0.67425884  0.36930586  0.63203464  1
  Co  Co42  1  0.32574115  0.36930586  0.63203464  1
  Co  Co43  1  0.49999999  0.28217644  0.63203464  1
  Co  Co44  1  0.58712942  0.71782355  0.36796538  1
  Co  Co45  1  0.41287057  0.71782355  0.36796538  1
  Co  Co46  1  0.58712942  0.71782355  0.63203464  1
  Co  Co47  1  0.41287057  0.71782355  0.63203464  1
  Co  Co48  1  0.58712942  0.28217644  0.36796538  1
  Co  Co49  1  0.41287057  0.28217644  0.36796538  1
  Co  Co50  1  0.58712942  0.28217644  0.63203464  1
  Co  Co51  1  0.41287057  0.28217644  0.63203464  1
  Co  Co52  1  0.76138826  0.54356471  0.36796538  1
  Co  Co53  1  0.23861173  0.54356471  0.36796538  1
  Co  Co54  1  0.76138826  0.45643528  0.36796538  1
  Co  Co55  1  0.23861173  0.45643528  0.36796538  1
  Co  Co56  1  0.76138826  0.54356471  0.63203464  1
  Co  Co57  1  0.23861173  0.54356471  0.63203464  1
  Co  Co58  1  0.76138826  0.45643528  0.63203464  1
  Co  Co59  1  0.23861173  0.45643528  0.63203464  1
  Co  Co60  1  0.67425884  0.71782355  0.36796538  1
  Co  Co61  1  0.32574115  0.71782355  0.36796538  1
  Co  Co62  1  0.67425884  0.71782355  0.63203464  1
  Co  Co63  1  0.32574115  0.71782355  0.63203464  1
  Co  Co64  1  0.67425884  0.28217644  0.36796538  1
  Co  Co65  1  0.32574115  0.28217644  0.36796538  1
  Co  Co66  1  0.67425884  0.28217644  0.63203464  1
  Co  Co67  1  0.32574115  0.28217644  0.63203464  1
  Co  Co68  1  0.76138826  0.63069413  0.36796538  1
  Co  Co69  1  0.23861173  0.63069413  0.36796538  1
  Co  Co70  1  0.76138826  0.63069413  0.63203464  1
  Co  Co71  1  0.23861173  0.63069413  0.63203464  1
  Co  Co72  1  0.76138826  0.36930586  0.36796538  1
  Co  Co73  1  0.23861173  0.36930586  0.36796538  1
  Co  Co74  1  0.76138826  0.36930586  0.63203464  1
  Co  Co75  1  0.23861173  0.36930586  0.63203464  1
  Co  Co76  1  0.49999999  0.80495297  0.36796538  1
  Co  Co77  1  0.49999999  0.80495297  0.63203464  1
  Co  Co78  1  0.49999999  0.19504702  0.36796538  1
  Co  Co79  1  0.49999999  0.19504702  0.63203464  1
  Pt  Pt80  1  0.49999999  0.50000002  0.50000000  1
  Pt  Pt81  1  0.45643531  0.54356471  0.50000000  1
  Pt  Pt82  1  0.54356473  0.54356471  0.50000000  1
  Pt  Pt83  1  0.45643531  0.45643528  0.50000000  1
  Pt  Pt84  1  0.54356473  0.45643528  0.50000000  1
  Pt  Pt85  1  0.49999999  0.54356471  0.54483180  1
  Pt  Pt86  1  0.49999999  0.54356471  0.45516820  1
  Pt  Pt87  1  0.49999999  0.45643528  0.54483180  1
  Pt  Pt88  1  0.49999999  0.45643528  0.45516820  1
  Pt  Pt89  1  0.45643531  0.50000002  0.54523911  1
  Pt  Pt90  1  0.45643531  0.50000002  0.45476089  1
  Pt  Pt91  1  0.54356473  0.50000002  0.54523911  1
  Pt  Pt92  1  0.54356473  0.50000002  0.45476089  1
  Pt  Pt93  1  0.58712942  0.50000002  0.50000000  1
  Pt  Pt94  1  0.49999999  0.58712944  0.50000000  1
  Pt  Pt95  1  0.49999999  0.41287059  0.50000000  1
  Pt  Pt96  1  0.41287057  0.50000002  0.50000000  1
  Pt  Pt97  1  0.49999999  0.49999999  0.59017111  1
  Pt  Pt98  1  0.49999999  0.49999999  0.40982889  1
  Pt  Pt99  1  0.58712942  0.54356471  0.54483180  1
  Pt  Pt100  1  0.58712942  0.54356471  0.45516820  1
  Pt  Pt101  1  0.41287057  0.54356471  0.54483180  1
  Pt  Pt102  1  0.41287057  0.54356471  0.45516820  1
  Pt  Pt103  1  0.58712942  0.45643528  0.54483180  1
  Pt  Pt104  1  0.58712942  0.45643528  0.45516820  1
  Pt  Pt105  1  0.41287057  0.45643528  0.54483180  1
  Pt  Pt106  1  0.41287057  0.45643528  0.45516820  1
  Pt  Pt107  1  0.45643531  0.58712944  0.54523911  1
  Pt  Pt108  1  0.45643531  0.58712944  0.45476089  1
  Pt  Pt109  1  0.45643531  0.41287059  0.54523911  1
  Pt  Pt110  1  0.45643531  0.41287059  0.45476089  1
  Pt  Pt111  1  0.54356473  0.58712944  0.54523911  1
  Pt  Pt112  1  0.54356473  0.58712944  0.45476089  1
  Pt  Pt113  1  0.54356473  0.41287059  0.54523911  1
  Pt  Pt114  1  0.54356473  0.41287059  0.45476089  1
  Pt  Pt115  1  0.54356471  0.54356471  0.59017111  1
  Pt  Pt116  1  0.45643528  0.54356471  0.59017111  1
  Pt  Pt117  1  0.54356471  0.54356471  0.40982889  1
  Pt  Pt118  1  0.45643528  0.54356471  0.40982889  1
  Pt  Pt119  1  0.54356471  0.45643528  0.59017111  1
  Pt  Pt120  1  0.45643528  0.45643528  0.59017111  1
  Pt  Pt121  1  0.54356471  0.45643528  0.40982889  1
  Pt  Pt122  1  0.45643528  0.45643528  0.40982889  1
  Pt  Pt123  1  0.58712942  0.58712944  0.50000000  1
  Pt  Pt124  1  0.58712942  0.41287059  0.50000000  1
  Pt  Pt125  1  0.41287057  0.58712944  0.50000000  1
  Pt  Pt126  1  0.41287057  0.41287059  0.50000000  1
  Pt  Pt127  1  0.49999999  0.58712942  0.59017111  1
  Pt  Pt128  1  0.49999999  0.58712942  0.40982889  1
  Pt  Pt129  1  0.58712942  0.49999999  0.59017111  1
  Pt  Pt130  1  0.41287057  0.49999999  0.59017111  1
  Pt  Pt131  1  0.58712942  0.49999999  0.40982889  1
  Pt  Pt132  1  0.41287057  0.49999999  0.40982889  1
  Pt  Pt133  1  0.49999999  0.41287057  0.59017111  1
  Pt  Pt134  1  0.49999999  0.41287057  0.40982889  1
  Pt  Pt135  1  0.45643531  0.63069413  0.50000000  1
  Pt  Pt136  1  0.36930588  0.54356471  0.50000000  1
  Pt  Pt137  1  0.54356473  0.63069413  0.50000000  1
  Pt  Pt138  1  0.36930588  0.45643528  0.50000000  1
  Pt  Pt139  1  0.63069415  0.54356471  0.50000000  1
  Pt  Pt140  1  0.45643531  0.36930586  0.50000000  1
  Pt  Pt141  1  0.63069415  0.45643528  0.50000000  1
  Pt  Pt142  1  0.54356473  0.36930586  0.50000000  1
  Pt  Pt143  1  0.49999999  0.63069413  0.54483180  1
  Pt  Pt144  1  0.49999999  0.63069413  0.45516820  1
  Pt  Pt145  1  0.49999999  0.36930586  0.54483180  1
  Pt  Pt146  1  0.49999999  0.36930586  0.45516820  1
  Pt  Pt147  1  0.36930588  0.50000002  0.54523911  1
  Pt  Pt148  1  0.36930588  0.50000002  0.45476089  1
  Pt  Pt149  1  0.63069415  0.50000002  0.54523911  1
  Pt  Pt150  1  0.63069415  0.50000002  0.45476089  1
  Pt  Pt151  1  0.54356471  0.49999999  0.36796538  1
  Pt  Pt152  1  0.45643528  0.49999999  0.36796538  1
  Pt  Pt153  1  0.54356471  0.49999999  0.63203464  1
  Pt  Pt154  1  0.45643528  0.49999999  0.63203464  1
  Pt  Pt155  1  0.58712942  0.58712942  0.59017111  1
  Pt  Pt156  1  0.41287057  0.58712942  0.59017111  1
  Pt  Pt157  1  0.58712942  0.58712942  0.40982889  1
  Pt  Pt158  1  0.41287057  0.58712942  0.40982889  1
  Pt  Pt159  1  0.58712942  0.41287057  0.59017111  1
  Pt  Pt160  1  0.41287057  0.41287057  0.59017111  1
  Pt  Pt161  1  0.58712942  0.41287057  0.40982889  1
  Pt  Pt162  1  0.41287057  0.41287057  0.40982889  1
  Pt  Pt163  1  0.58712942  0.63069413  0.54483180  1
  Pt  Pt164  1  0.41287057  0.63069413  0.54483180  1
  Pt  Pt165  1  0.58712942  0.63069413  0.45516820  1
  Pt  Pt166  1  0.41287057  0.63069413  0.45516820  1
  Pt  Pt167  1  0.58712942  0.36930586  0.54483180  1
  Pt  Pt168  1  0.58712942  0.36930586  0.45516820  1
  Pt  Pt169  1  0.41287057  0.36930586  0.54483180  1
  Pt  Pt170  1  0.41287057  0.36930586  0.45516820  1
  Pt  Pt171  1  0.36930588  0.58712944  0.54523911  1
  Pt  Pt172  1  0.36930588  0.58712944  0.45476089  1
  Pt  Pt173  1  0.36930588  0.41287059  0.54523911  1
  Pt  Pt174  1  0.36930588  0.41287059  0.45476089  1
  Pt  Pt175  1  0.63069415  0.58712944  0.54523911  1
  Pt  Pt176  1  0.63069415  0.58712944  0.45476089  1
  Pt  Pt177  1  0.63069415  0.41287059  0.54523911  1
  Pt  Pt178  1  0.63069415  0.41287059  0.45476089  1
  Pt  Pt179  1  0.54356471  0.58712942  0.36796538  1
  Pt  Pt180  1  0.45643528  0.58712942  0.36796538  1
  Pt  Pt181  1  0.54356471  0.58712942  0.63203464  1
  Pt  Pt182  1  0.45643528  0.58712942  0.63203464  1
  Pt  Pt183  1  0.54356471  0.41287057  0.36796538  1
  Pt  Pt184  1  0.45643528  0.41287057  0.36796538  1
  Pt  Pt185  1  0.54356471  0.41287057  0.63203464  1
  Pt  Pt186  1  0.45643528  0.41287057  0.63203464  1
  Pt  Pt187  1  0.54356471  0.63069413  0.59017111  1
  Pt  Pt188  1  0.45643528  0.63069413  0.59017111  1
  Pt  Pt189  1  0.54356471  0.63069413  0.40982889  1
  Pt  Pt190  1  0.45643528  0.63069413  0.40982889  1
  Pt  Pt191  1  0.63069413  0.54356471  0.59017111  1
  Pt  Pt192  1  0.36930586  0.54356471  0.59017111  1
  Pt  Pt193  1  0.63069413  0.54356471  0.40982889  1
  Pt  Pt194  1  0.36930586  0.54356471  0.40982889  1
  Pt  Pt195  1  0.63069413  0.45643528  0.59017111  1
  Pt  Pt196  1  0.36930586  0.45643528  0.59017111  1
  Pt  Pt197  1  0.63069413  0.45643528  0.40982889  1
  Pt  Pt198  1  0.36930586  0.45643528  0.40982889  1
  Pt  Pt199  1  0.54356471  0.36930586  0.59017111  1
  Pt  Pt200  1  0.45643528  0.36930586  0.59017111  1
  Pt  Pt201  1  0.45643528  0.36930586  0.40982889  1
  Pt  Pt202  1  0.54356471  0.36930586  0.40982889  1
  Pt  Pt203  1  0.49999999  0.49999999  0.67389815  1
  Pt  Pt204  1  0.49999999  0.49999999  0.32610184  1
  Pt  Pt205  1  0.67425884  0.50000002  0.50000000  1
  Pt  Pt206  1  0.49999999  0.67425886  0.50000000  1
  Pt  Pt207  1  0.49999999  0.32574117  0.50000000  1
  Pt  Pt208  1  0.32574115  0.50000002  0.50000000  1
  Pt  Pt209  1  0.54356471  0.54356471  0.67389815  1
  Pt  Pt210  1  0.45643528  0.54356471  0.67389815  1
  Pt  Pt211  1  0.54356471  0.54356471  0.32610184  1
  Pt  Pt212  1  0.45643528  0.54356471  0.32610184  1
  Pt  Pt213  1  0.45643528  0.45643528  0.67389815  1
  Pt  Pt214  1  0.54356471  0.45643528  0.67389815  1
  Pt  Pt215  1  0.54356471  0.45643528  0.32610184  1
  Pt  Pt216  1  0.45643528  0.45643528  0.32610184  1
  Pt  Pt217  1  0.36930588  0.63069413  0.50000000  1
  Pt  Pt218  1  0.63069415  0.63069413  0.50000000  1
  Pt  Pt219  1  0.36930588  0.36930586  0.50000000  1
  Pt  Pt220  1  0.63069415  0.36930586  0.50000000  1
  Pt  Pt221  1  0.67425884  0.54356471  0.54483180  1
  Pt  Pt222  1  0.67425884  0.54356471  0.45516820  1
  Pt  Pt223  1  0.32574115  0.54356471  0.54483180  1
  Pt  Pt224  1  0.32574115  0.54356471  0.45516820  1
  Pt  Pt225  1  0.67425884  0.45643528  0.54483180  1
  Pt  Pt226  1  0.67425884  0.45643528  0.45516820  1
  Pt  Pt227  1  0.32574115  0.45643528  0.54483180  1
  Pt  Pt228  1  0.32574115  0.45643528  0.45516820  1
  Pt  Pt229  1  0.45643531  0.67425886  0.45476089  1
  Pt  Pt230  1  0.45643531  0.67425886  0.54523911  1
  Pt  Pt231  1  0.45643531  0.32574117  0.54523911  1
  Pt  Pt232  1  0.45643531  0.32574117  0.45476089  1
  Pt  Pt233  1  0.54356473  0.67425886  0.54523911  1
  Pt  Pt234  1  0.54356473  0.32574117  0.54523911  1
  Pt  Pt235  1  0.54356473  0.67425886  0.45476089  1
  Pt  Pt236  1  0.54356473  0.32574117  0.45476089  1
  Pt  Pt237  1  0.63069413  0.49999999  0.36796538  1
  Pt  Pt238  1  0.36930586  0.49999999  0.36796538  1
  Pt  Pt239  1  0.63069413  0.49999999  0.63203464  1
  Pt  Pt240  1  0.36930586  0.49999999  0.63203464  1
  Pt  Pt241  1  0.49999999  0.58712942  0.67389815  1
  Pt  Pt242  1  0.49999999  0.58712942  0.32610184  1
  Pt  Pt243  1  0.41287057  0.49999999  0.67389815  1
  Pt  Pt244  1  0.58712942  0.49999999  0.67389815  1
  Pt  Pt245  1  0.58712942  0.49999999  0.32610184  1
  Pt  Pt246  1  0.41287057  0.49999999  0.32610184  1
  Pt  Pt247  1  0.49999999  0.41287057  0.67389815  1
  Pt  Pt248  1  0.49999999  0.41287057  0.32610184  1
  Pt  Pt249  1  0.67425884  0.58712944  0.50000000  1
  Pt  Pt250  1  0.58712942  0.67425886  0.50000000  1
  Pt  Pt251  1  0.67425884  0.41287059  0.50000000  1
  Pt  Pt252  1  0.58712942  0.32574117  0.50000000  1
  Pt  Pt253  1  0.41287057  0.32574117  0.50000000  1
  Pt  Pt254  1  0.41287057  0.67425886  0.50000000  1
  Pt  Pt255  1  0.32574115  0.58712944  0.50000000  1
  Pt  Pt256  1  0.32574115  0.41287059  0.50000000  1
  Pt  Pt257  1  0.49999999  0.67425884  0.59017111  1
  Pt  Pt258  1  0.49999999  0.67425884  0.40982889  1
  Pt  Pt259  1  0.67425884  0.49999999  0.59017111  1
  Pt  Pt260  1  0.32574115  0.49999999  0.59017111  1
  Pt  Pt261  1  0.67425884  0.49999999  0.40982889  1
  Pt  Pt262  1  0.32574115  0.49999999  0.40982889  1
  Pt  Pt263  1  0.49999999  0.32574115  0.59017111  1
  Pt  Pt264  1  0.49999999  0.32574115  0.40982889  1
  Pt  Pt265  1  0.63069413  0.58712942  0.36796538  1
  Pt  Pt266  1  0.36930586  0.58712942  0.36796538  1
  Pt  Pt267  1  0.63069413  0.58712942  0.63203464  1
  Pt  Pt268  1  0.36930586  0.58712942  0.63203464  1
  Pt  Pt269  1  0.63069413  0.41287057  0.36796538  1
  Pt  Pt270  1  0.36930586  0.41287057  0.36796538  1
  Pt  Pt271  1  0.63069413  0.41287057  0.63203464  1
  Pt  Pt272  1  0.36930586  0.41287057  0.63203464  1
  Pt  Pt273  1  0.63069413  0.63069413  0.59017111  1
  Pt  Pt274  1  0.36930586  0.63069413  0.59017111  1
  Pt  Pt275  1  0.63069413  0.63069413  0.40982889  1
  Pt  Pt276  1  0.36930586  0.63069413  0.40982889  1
  Pt  Pt277  1  0.63069413  0.36930586  0.59017111  1
  Pt  Pt278  1  0.36930586  0.36930586  0.59017111  1
  Pt  Pt279  1  0.63069413  0.36930586  0.40982889  1
  Pt  Pt280  1  0.36930586  0.36930586  0.40982889  1
  Pt  Pt281  1  0.58712942  0.58712942  0.67389815  1
  Pt  Pt282  1  0.41287057  0.58712942  0.67389815  1
  Pt  Pt283  1  0.58712942  0.58712942  0.32610184  1
  Pt  Pt284  1  0.41287057  0.58712942  0.32610184  1
  Pt  Pt285  1  0.41287057  0.41287057  0.67389815  1
  Pt  Pt286  1  0.58712942  0.41287057  0.67389815  1
  Pt  Pt287  1  0.58712942  0.41287057  0.32610184  1
  Pt  Pt288  1  0.41287057  0.41287057  0.32610184  1
  Pt  Pt289  1  0.58712942  0.67425884  0.59017111  1
  Pt  Pt290  1  0.41287057  0.67425884  0.59017111  1
  Pt  Pt291  1  0.58712942  0.67425884  0.40982889  1
  Pt  Pt292  1  0.41287057  0.67425884  0.40982889  1
  Pt  Pt293  1  0.67425884  0.58712942  0.59017111  1
  Pt  Pt294  1  0.32574115  0.58712942  0.59017111  1
  Pt  Pt295  1  0.67425884  0.58712942  0.40982889  1
  Pt  Pt296  1  0.32574115  0.58712942  0.40982889  1
  Pt  Pt297  1  0.67425884  0.41287057  0.59017111  1
  Pt  Pt298  1  0.32574115  0.41287057  0.59017111  1
  Pt  Pt299  1  0.67425884  0.41287057  0.40982889  1
  Pt  Pt300  1  0.32574115  0.41287057  0.40982889  1
  Pt  Pt301  1  0.58712942  0.32574115  0.59017111  1
  Pt  Pt302  1  0.41287057  0.32574115  0.59017111  1
  Pt  Pt303  1  0.58712942  0.32574115  0.40982889  1
  Pt  Pt304  1  0.41287057  0.32574115  0.40982889  1
  Pt  Pt305  1  0.54356471  0.63069413  0.67389815  1
  Pt  Pt306  1  0.45643528  0.63069413  0.67389815  1
  Pt  Pt307  1  0.54356471  0.63069413  0.32610184  1
  Pt  Pt308  1  0.45643528  0.63069413  0.32610184  1
  Pt  Pt309  1  0.36930586  0.54356471  0.67389815  1
  Pt  Pt310  1  0.63069413  0.54356471  0.67389815  1
  Pt  Pt311  1  0.63069413  0.54356471  0.32610184  1
  Pt  Pt312  1  0.36930586  0.54356471  0.32610184  1
  Pt  Pt313  1  0.36930586  0.45643528  0.67389815  1
  Pt  Pt314  1  0.63069413  0.45643528  0.67389815  1
  Pt  Pt315  1  0.63069413  0.45643528  0.32610184  1
  Pt  Pt316  1  0.36930586  0.45643528  0.32610184  1
  Pt  Pt317  1  0.54356471  0.36930586  0.67389815  1
  Pt  Pt318  1  0.45643528  0.36930586  0.67389815  1
  Pt  Pt319  1  0.54356471  0.36930586  0.32610184  1
  Pt  Pt320  1  0.45643528  0.36930586  0.32610184  1
  Pt  Pt321  1  0.45643531  0.71782355  0.50000000  1
  Pt  Pt322  1  0.28217646  0.54356471  0.50000000  1
  Pt  Pt323  1  0.54356473  0.71782355  0.50000000  1
  Pt  Pt324  1  0.28217646  0.45643528  0.50000000  1
  Pt  Pt325  1  0.71782357  0.54356471  0.50000000  1
  Pt  Pt326  1  0.45643531  0.28217644  0.50000000  1
  Pt  Pt327  1  0.71782357  0.45643528  0.50000000  1
  Pt  Pt328  1  0.54356473  0.28217644  0.50000000  1
  Pt  Pt329  1  0.49999999  0.71782355  0.54483180  1
  Pt  Pt330  1  0.49999999  0.71782355  0.45516820  1
  Pt  Pt331  1  0.67425884  0.63069413  0.54483180  1
  Pt  Pt332  1  0.67425884  0.63069413  0.45516820  1
  Pt  Pt333  1  0.32574115  0.63069413  0.54483180  1
  Pt  Pt334  1  0.32574115  0.63069413  0.45516820  1
  Pt  Pt335  1  0.67425884  0.36930586  0.54483180  1
  Pt  Pt336  1  0.67425884  0.36930586  0.45516820  1
  Pt  Pt337  1  0.32574115  0.36930586  0.54483180  1
  Pt  Pt338  1  0.32574115  0.36930586  0.45516820  1
  Pt  Pt339  1  0.49999999  0.28217644  0.54483180  1
  Pt  Pt340  1  0.49999999  0.28217644  0.45516820  1
  Pt  Pt341  1  0.28217646  0.50000002  0.54523911  1
  Pt  Pt342  1  0.28217646  0.50000002  0.45476089  1
  Pt  Pt343  1  0.36930588  0.67425886  0.54523911  1
  Pt  Pt344  1  0.36930588  0.32574117  0.54523911  1
  Pt  Pt345  1  0.36930588  0.67425886  0.45476089  1
  Pt  Pt346  1  0.36930588  0.32574117  0.45476089  1
  Pt  Pt347  1  0.63069415  0.67425886  0.45476089  1
  Pt  Pt348  1  0.63069415  0.67425886  0.54523911  1
  Pt  Pt349  1  0.63069415  0.32574117  0.54523911  1
  Pt  Pt350  1  0.63069415  0.32574117  0.45476089  1
  Pt  Pt351  1  0.71782357  0.50000002  0.54523911  1
  Pt  Pt352  1  0.71782357  0.50000002  0.45476089  1
  Pt  Pt353  1  0.54356471  0.67425884  0.36796538  1
  Pt  Pt354  1  0.45643528  0.67425884  0.36796538  1
  Pt  Pt355  1  0.54356471  0.67425884  0.63203464  1
  Pt  Pt356  1  0.45643528  0.67425884  0.63203464  1
  Pt  Pt357  1  0.54356471  0.32574115  0.36796538  1
  Pt  Pt358  1  0.45643528  0.32574115  0.36796538  1
  Pt  Pt359  1  0.54356471  0.32574115  0.63203464  1
  Pt  Pt360  1  0.45643528  0.32574115  0.63203464  1
  Pt  Pt361  1  0.45643531  0.50000002  0.71883015  1
  Pt  Pt362  1  0.45643531  0.50000002  0.28116984  1
  Pt  Pt363  1  0.54356473  0.50000002  0.71883015  1
  Pt  Pt364  1  0.54356473  0.50000002  0.28116984  1
  Pt  Pt365  1  0.49999999  0.54356471  0.71923747  1
  Pt  Pt366  1  0.49999999  0.54356471  0.28076253  1
  Pt  Pt367  1  0.49999999  0.45643528  0.71923747  1
  Pt  Pt368  1  0.49999999  0.45643528  0.28076253  1
  Pt  Pt369  1  0.58712942  0.71782355  0.54483180  1
  Pt  Pt370  1  0.58712942  0.71782355  0.45516820  1
  Pt  Pt371  1  0.41287057  0.71782355  0.54483180  1
  Pt  Pt372  1  0.41287057  0.71782355  0.45516820  1
  Pt  Pt373  1  0.58712942  0.28217644  0.54483180  1
  Pt  Pt374  1  0.58712942  0.28217644  0.45516820  1
  Pt  Pt375  1  0.41287057  0.28217644  0.54483180  1
  Pt  Pt376  1  0.41287057  0.28217644  0.45516820  1
  Pt  Pt377  1  0.28217646  0.58712944  0.54523911  1
  Pt  Pt378  1  0.28217646  0.58712944  0.45476089  1
  Pt  Pt379  1  0.28217646  0.41287059  0.54523911  1
  Pt  Pt380  1  0.28217646  0.41287059  0.45476089  1
  Pt  Pt381  1  0.71782357  0.58712944  0.54523911  1
  Pt  Pt382  1  0.71782357  0.58712944  0.45476089  1
  Pt  Pt383  1  0.71782357  0.41287059  0.45476089  1
  Pt  Pt384  1  0.71782357  0.41287059  0.54523911  1
  Pt  Pt385  1  0.45643531  0.58712944  0.71883015  1
  Pt  Pt386  1  0.45643531  0.41287059  0.71883015  1
  Pt  Pt387  1  0.45643531  0.58712944  0.28116984  1
  Pt  Pt388  1  0.45643531  0.41287059  0.28116984  1
  Pt  Pt389  1  0.54356473  0.58712944  0.71883015  1
  Pt  Pt390  1  0.54356473  0.41287059  0.71883015  1
  Pt  Pt391  1  0.54356473  0.58712944  0.28116984  1
  Pt  Pt392  1  0.54356473  0.41287059  0.28116984  1
  Pt  Pt393  1  0.54356471  0.71782355  0.59017111  1
  Pt  Pt394  1  0.45643528  0.71782355  0.59017111  1
  Pt  Pt395  1  0.54356471  0.71782355  0.40982889  1
  Pt  Pt396  1  0.45643528  0.71782355  0.40982889  1
  Pt  Pt397  1  0.71782355  0.54356471  0.59017111  1
  Pt  Pt398  1  0.28217644  0.54356471  0.59017111  1
  Pt  Pt399  1  0.71782355  0.54356471  0.40982889  1
  Pt  Pt400  1  0.28217644  0.54356471  0.40982889  1
  Pt  Pt401  1  0.71782355  0.45643528  0.59017111  1
  Pt  Pt402  1  0.28217644  0.45643528  0.59017111  1
  Pt  Pt403  1  0.71782355  0.45643528  0.40982889  1
  Pt  Pt404  1  0.28217644  0.45643528  0.40982889  1
  Pt  Pt405  1  0.54356471  0.28217644  0.59017111  1
  Pt  Pt406  1  0.45643528  0.28217644  0.59017111  1
  Pt  Pt407  1  0.45643528  0.28217644  0.40982889  1
  Pt  Pt408  1  0.54356471  0.28217644  0.40982889  1
  Pt  Pt409  1  0.58712942  0.54356471  0.71923747  1
  Pt  Pt410  1  0.41287057  0.54356471  0.71923747  1
  Pt  Pt411  1  0.58712942  0.54356471  0.28076253  1
  Pt  Pt412  1  0.41287057  0.54356471  0.28076253  1
  Pt  Pt413  1  0.58712942  0.45643528  0.71923747  1
  Pt  Pt414  1  0.41287057  0.45643528  0.71923747  1
  Pt  Pt415  1  0.58712942  0.45643528  0.28076253  1
  Pt  Pt416  1  0.41287057  0.45643528  0.28076253  1
  Pt  Pt417  1  0.49999999  0.67425884  0.67389815  1
  Pt  Pt418  1  0.49999999  0.67425884  0.32610184  1
  Pt  Pt419  1  0.32574115  0.49999999  0.67389815  1
  Pt  Pt420  1  0.67425884  0.49999999  0.67389815  1
  Pt  Pt421  1  0.67425884  0.49999999  0.32610184  1
  Pt  Pt422  1  0.32574115  0.49999999  0.32610184  1
  Pt  Pt423  1  0.49999999  0.32574115  0.67389815  1
  Pt  Pt424  1  0.49999999  0.32574115  0.32610184  1
  Pt  Pt425  1  0.67425884  0.67425886  0.50000000  1
  Pt  Pt426  1  0.67425884  0.32574117  0.50000000  1
  Pt  Pt427  1  0.32574115  0.32574117  0.50000000  1
  Pt  Pt428  1  0.32574115  0.67425886  0.50000000  1
  Pt  Pt429  1  0.63069413  0.63069413  0.67389815  1
  Pt  Pt430  1  0.36930586  0.63069413  0.67389815  1
  Pt  Pt431  1  0.63069413  0.63069413  0.32610184  1
  Pt  Pt432  1  0.36930586  0.63069413  0.32610184  1
  Pt  Pt433  1  0.36930586  0.36930586  0.67389815  1
  Pt  Pt434  1  0.63069413  0.36930586  0.67389815  1
  Pt  Pt435  1  0.63069413  0.36930586  0.32610184  1
  Pt  Pt436  1  0.36930586  0.36930586  0.32610184  1
  Pt  Pt437  1  0.36930588  0.71782355  0.50000000  1
  Pt  Pt438  1  0.28217646  0.63069413  0.50000000  1
  Pt  Pt439  1  0.63069415  0.71782355  0.50000000  1
  Pt  Pt440  1  0.28217646  0.36930586  0.50000000  1
  Pt  Pt441  1  0.71782357  0.63069413  0.50000000  1
  Pt  Pt442  1  0.36930588  0.28217644  0.50000000  1
  Pt  Pt443  1  0.63069415  0.28217644  0.50000000  1
  Pt  Pt444  1  0.71782357  0.36930586  0.50000000  1
  Pt  Pt445  1  0.63069413  0.67425884  0.36796538  1
  Pt  Pt446  1  0.36930586  0.67425884  0.36796538  1
  Pt  Pt447  1  0.63069413  0.67425884  0.63203464  1
  Pt  Pt448  1  0.36930586  0.67425884  0.63203464  1
  Pt  Pt449  1  0.71782355  0.49999999  0.36796538  1
  Pt  Pt450  1  0.28217644  0.49999999  0.36796538  1
  Pt  Pt451  1  0.71782355  0.49999999  0.63203464  1
  Pt  Pt452  1  0.28217644  0.49999999  0.63203464  1
  Pt  Pt453  1  0.63069413  0.32574115  0.36796538  1
  Pt  Pt454  1  0.36930586  0.32574115  0.36796538  1
  Pt  Pt455  1  0.63069413  0.32574115  0.63203464  1
  Pt  Pt456  1  0.36930586  0.32574115  0.63203464  1
  Pt  Pt457  1  0.36930588  0.50000002  0.71883015  1
  Pt  Pt458  1  0.36930588  0.50000002  0.28116984  1
  Pt  Pt459  1  0.63069415  0.50000002  0.71883015  1
  Pt  Pt460  1  0.63069415  0.50000002  0.28116984  1
  Pt  Pt461  1  0.49999999  0.63069413  0.71923747  1
  Pt  Pt462  1  0.49999999  0.63069413  0.28076253  1
  Pt  Pt463  1  0.49999999  0.36930586  0.71923747  1
  Pt  Pt464  1  0.49999999  0.36930586  0.28076253  1
  Pt  Pt465  1  0.58712942  0.67425884  0.67389815  1
  Pt  Pt466  1  0.41287057  0.67425884  0.67389815  1
  Pt  Pt467  1  0.58712942  0.67425884  0.32610184  1
  Pt  Pt468  1  0.41287057  0.67425884  0.32610184  1
  Pt  Pt469  1  0.32574115  0.58712942  0.67389815  1
  Pt  Pt470  1  0.67425884  0.58712942  0.67389815  1
  Pt  Pt471  1  0.67425884  0.58712942  0.32610184  1
  Pt  Pt472  1  0.32574115  0.58712942  0.32610184  1
  Pt  Pt473  1  0.67425884  0.41287057  0.67389815  1
  Pt  Pt474  1  0.32574115  0.41287057  0.67389815  1
  Pt  Pt475  1  0.67425884  0.41287057  0.32610184  1
  Pt  Pt476  1  0.32574115  0.41287057  0.32610184  1
  Pt  Pt477  1  0.58712942  0.32574115  0.67389815  1
  Pt  Pt478  1  0.41287057  0.32574115  0.67389815  1
  Pt  Pt479  1  0.58712942  0.32574115  0.32610184  1
  Pt  Pt480  1  0.41287057  0.32574115  0.32610184  1
  Pt  Pt481  1  0.76138826  0.50000002  0.50000000  1
  Pt  Pt482  1  0.49999999  0.76138828  0.50000000  1
  Pt  Pt483  1  0.49999999  0.23861175  0.50000000  1
  Pt  Pt484  1  0.23861173  0.50000002  0.50000000  1
  Pt  Pt485  1  0.67425884  0.67425884  0.59017111  1
  Pt  Pt486  1  0.32574115  0.67425884  0.59017111  1
  Pt  Pt487  1  0.67425884  0.67425884  0.40982889  1
  Pt  Pt488  1  0.32574115  0.67425884  0.40982889  1
  Pt  Pt489  1  0.67425884  0.32574115  0.59017111  1
  Pt  Pt490  1  0.32574115  0.32574115  0.59017111  1
  Pt  Pt491  1  0.67425884  0.32574115  0.40982889  1
  Pt  Pt492  1  0.32574115  0.32574115  0.40982889  1
  Pt  Pt493  1  0.49999999  0.50000002  0.76406927  1
  Pt  Pt494  1  0.49999999  0.50000002  0.23593073  1
  Pt  Pt495  1  0.76138826  0.54356471  0.54483180  1
  Pt  Pt496  1  0.76138826  0.54356471  0.45516820  1
  Pt  Pt497  1  0.23861173  0.54356471  0.54483180  1
  Pt  Pt498  1  0.23861173  0.54356471  0.45516820  1
  Pt  Pt499  1  0.76138826  0.45643528  0.54483180  1
  Pt  Pt500  1  0.76138826  0.45643528  0.45516820  1
  Pt  Pt501  1  0.23861173  0.45643528  0.54483180  1
  Pt  Pt502  1  0.23861173  0.45643528  0.45516820  1
  Pt  Pt503  1  0.45643531  0.76138828  0.45476089  1
  Pt  Pt504  1  0.45643531  0.23861175  0.54523911  1
  Pt  Pt505  1  0.45643531  0.76138828  0.54523911  1
  Pt  Pt506  1  0.45643531  0.23861175  0.45476089  1
  Pt  Pt507  1  0.54356473  0.23861175  0.54523911  1
  Pt  Pt508  1  0.54356473  0.76138828  0.45476089  1
  Pt  Pt509  1  0.54356473  0.76138828  0.54523911  1
  Pt  Pt510  1  0.54356473  0.23861175  0.45476089  1
  Pt  Pt511  1  0.71782355  0.58712942  0.36796538  1
  Pt  Pt512  1  0.28217644  0.58712942  0.36796538  1
  Pt  Pt513  1  0.71782355  0.58712942  0.63203464  1
  Pt  Pt514  1  0.28217644  0.58712942  0.63203464  1
  Pt  Pt515  1  0.71782355  0.41287057  0.36796538  1
  Pt  Pt516  1  0.28217644  0.41287057  0.36796538  1
  Pt  Pt517  1  0.71782355  0.41287057  0.63203464  1
  Pt  Pt518  1  0.28217644  0.41287057  0.63203464  1
  Pt  Pt519  1  0.36930588  0.58712944  0.71883015  1
  Pt  Pt520  1  0.36930588  0.41287059  0.71883015  1
  Pt  Pt521  1  0.36930588  0.58712944  0.28116984  1
  Pt  Pt522  1  0.36930588  0.41287059  0.28116984  1
  Pt  Pt523  1  0.63069415  0.58712944  0.71883015  1
  Pt  Pt524  1  0.63069415  0.41287059  0.71883015  1
  Pt  Pt525  1  0.63069415  0.58712944  0.28116984  1
  Pt  Pt526  1  0.63069415  0.41287059  0.28116984  1
  Pt  Pt527  1  0.63069413  0.71782355  0.59017111  1
  Pt  Pt528  1  0.36930586  0.71782355  0.59017111  1
  Pt  Pt529  1  0.63069413  0.71782355  0.40982889  1
  Pt  Pt530  1  0.36930586  0.71782355  0.40982889  1
  Pt  Pt531  1  0.71782355  0.63069413  0.59017111  1
  Pt  Pt532  1  0.28217644  0.63069413  0.59017111  1
  Pt  Pt533  1  0.71782355  0.63069413  0.40982889  1
  Pt  Pt534  1  0.28217644  0.63069413  0.40982889  1
  Pt  Pt535  1  0.71782355  0.36930586  0.59017111  1
  Pt  Pt536  1  0.28217644  0.36930586  0.59017111  1
  Pt  Pt537  1  0.71782355  0.36930586  0.40982889  1
  Pt  Pt538  1  0.28217644  0.36930586  0.40982889  1
  Pt  Pt539  1  0.63069413  0.28217644  0.59017111  1
  Pt  Pt540  1  0.36930586  0.28217644  0.59017111  1
  Pt  Pt541  1  0.63069413  0.28217644  0.40982889  1
  Pt  Pt542  1  0.36930586  0.28217644  0.40982889  1
  Pt  Pt543  1  0.58712942  0.63069413  0.71923747  1
  Pt  Pt544  1  0.41287057  0.63069413  0.71923747  1
  Pt  Pt545  1  0.58712942  0.63069413  0.28076253  1
  Pt  Pt546  1  0.41287057  0.63069413  0.28076253  1
  Pt  Pt547  1  0.58712942  0.36930586  0.71923747  1
  Pt  Pt548  1  0.41287057  0.36930586  0.71923747  1
  Pt  Pt549  1  0.58712942  0.36930586  0.28076253  1
  Pt  Pt550  1  0.41287057  0.36930586  0.28076253  1
  Pt  Pt551  1  0.45643531  0.54356471  0.76406927  1
  Pt  Pt552  1  0.45643531  0.54356471  0.23593073  1
  Pt  Pt553  1  0.54356473  0.54356471  0.76406927  1
  Pt  Pt554  1  0.45643531  0.45643528  0.76406927  1
  Pt  Pt555  1  0.54356473  0.54356471  0.23593073  1
  Pt  Pt556  1  0.45643531  0.45643528  0.23593073  1
  Pt  Pt557  1  0.54356473  0.45643528  0.76406927  1
  Pt  Pt558  1  0.54356473  0.45643528  0.23593073  1
  Pt  Pt559  1  0.76138826  0.58712944  0.50000000  1
  Pt  Pt560  1  0.76138826  0.41287059  0.50000000  1
  Pt  Pt561  1  0.58712942  0.76138828  0.50000000  1
  Pt  Pt562  1  0.58712942  0.23861175  0.50000000  1
  Pt  Pt563  1  0.41287057  0.23861175  0.50000000  1
  Pt  Pt564  1  0.41287057  0.76138828  0.50000000  1
  Pt  Pt565  1  0.23861173  0.58712944  0.50000000  1
  Pt  Pt566  1  0.23861173  0.41287059  0.50000000  1
  Pt  Pt567  1  0.49999999  0.76138826  0.59017111  1
  Pt  Pt568  1  0.49999999  0.76138826  0.40982889  1
  Pt  Pt569  1  0.76138826  0.49999999  0.59017111  1
  Pt  Pt570  1  0.23861173  0.49999999  0.59017111  1
  Pt  Pt571  1  0.76138826  0.49999999  0.40982889  1
  Pt  Pt572  1  0.23861173  0.49999999  0.40982889  1
  Pt  Pt573  1  0.49999999  0.23861173  0.59017111  1
  Pt  Pt574  1  0.49999999  0.23861173  0.40982889  1
  Pt  Pt575  1  0.58712942  0.50000002  0.76406927  1
  Pt  Pt576  1  0.49999999  0.58712944  0.76406927  1
  Pt  Pt577  1  0.49999999  0.41287059  0.76406927  1
  Pt  Pt578  1  0.41287057  0.50000002  0.76406927  1
  Pt  Pt579  1  0.58712942  0.50000002  0.23593073  1
  Pt  Pt580  1  0.49999999  0.58712944  0.23593073  1
  Pt  Pt581  1  0.41287057  0.50000002  0.23593073  1
  Pt  Pt582  1  0.49999999  0.41287059  0.23593073  1
  Pt  Pt583  1  0.54356471  0.71782355  0.67389815  1
  Pt  Pt584  1  0.45643528  0.71782355  0.67389815  1
  Pt  Pt585  1  0.54356471  0.71782355  0.32610184  1
  Pt  Pt586  1  0.45643528  0.71782355  0.32610184  1
  Pt  Pt587  1  0.28217644  0.54356471  0.67389815  1
  Pt  Pt588  1  0.71782355  0.54356471  0.67389815  1
  Pt  Pt589  1  0.71782355  0.54356471  0.32610184  1
  Pt  Pt590  1  0.28217644  0.54356471  0.32610184  1
  Pt  Pt591  1  0.28217644  0.45643528  0.67389815  1
  Pt  Pt592  1  0.71782355  0.45643528  0.67389815  1
  Pt  Pt593  1  0.71782355  0.45643528  0.32610184  1
  Pt  Pt594  1  0.28217644  0.45643528  0.32610184  1
  Pt  Pt595  1  0.54356471  0.28217644  0.67389815  1
  Pt  Pt596  1  0.45643528  0.28217644  0.67389815  1
  Pt  Pt597  1  0.54356471  0.28217644  0.32610184  1
  Pt  Pt598  1  0.45643528  0.28217644  0.32610184  1
  Pt  Pt599  1  0.67425884  0.71782355  0.54483180  1
  Pt  Pt600  1  0.67425884  0.71782355  0.45516820  1
  Pt  Pt601  1  0.32574115  0.71782355  0.54483180  1
  Pt  Pt602  1  0.32574115  0.71782355  0.45516820  1
  Pt  Pt603  1  0.67425884  0.28217644  0.54483180  1
  Pt  Pt604  1  0.67425884  0.28217644  0.45516820  1
  Pt  Pt605  1  0.32574115  0.28217644  0.54483180  1
  Pt  Pt606  1  0.32574115  0.28217644  0.45516820  1
  Pt  Pt607  1  0.28217646  0.67425886  0.54523911  1
  Pt  Pt608  1  0.28217646  0.32574117  0.54523911  1
  Pt  Pt609  1  0.28217646  0.67425886  0.45476089  1
  Pt  Pt610  1  0.28217646  0.32574117  0.45476089  1
  Pt  Pt611  1  0.71782357  0.67425886  0.54523911  1
  Pt  Pt612  1  0.71782357  0.67425886  0.45476089  1
  Pt  Pt613  1  0.71782357  0.32574117  0.54523911  1
  Pt  Pt614  1  0.71782357  0.32574117  0.45476089  1
  Pt  Pt615  1  0.45643531  0.32574117  0.71883015  1
  Pt  Pt616  1  0.45643531  0.67425886  0.71883015  1
  Pt  Pt617  1  0.45643531  0.67425886  0.28116984  1
  Pt  Pt618  1  0.45643531  0.32574117  0.28116984  1
  Pt  Pt619  1  0.54356473  0.67425886  0.71883015  1
  Pt  Pt620  1  0.54356473  0.32574117  0.71883015  1
  Pt  Pt621  1  0.54356473  0.67425886  0.28116984  1
  Pt  Pt622  1  0.54356473  0.32574117  0.28116984  1
  Pt  Pt623  1  0.67425884  0.54356471  0.71923747  1
  Pt  Pt624  1  0.32574115  0.54356471  0.71923747  1
  Pt  Pt625  1  0.67425884  0.54356471  0.28076253  1
  Pt  Pt626  1  0.32574115  0.54356471  0.28076253  1
  Pt  Pt627  1  0.67425884  0.45643528  0.71923747  1
  Pt  Pt628  1  0.32574115  0.45643528  0.71923747  1
  Pt  Pt629  1  0.67425884  0.45643528  0.28076253  1
  Pt  Pt630  1  0.32574115  0.45643528  0.28076253  1
  Pt  Pt631  1  0.58712942  0.76138826  0.59017111  1
  Pt  Pt632  1  0.41287057  0.76138826  0.59017111  1
  Pt  Pt633  1  0.58712942  0.76138826  0.40982889  1
  Pt  Pt634  1  0.41287057  0.76138826  0.40982889  1
  Pt  Pt635  1  0.76138826  0.58712942  0.59017111  1
  Pt  Pt636  1  0.23861173  0.58712942  0.59017111  1
  Pt  Pt637  1  0.76138826  0.58712942  0.40982889  1
  Pt  Pt638  1  0.23861173  0.58712942  0.40982889  1
  Pt  Pt639  1  0.76138826  0.41287057  0.59017111  1
  Pt  Pt640  1  0.23861173  0.41287057  0.59017111  1
  Pt  Pt641  1  0.76138826  0.41287057  0.40982889  1
  Pt  Pt642  1  0.23861173  0.41287057  0.40982889  1
  Pt  Pt643  1  0.58712942  0.23861173  0.59017111  1
  Pt  Pt644  1  0.41287057  0.23861173  0.59017111  1
  Pt  Pt645  1  0.58712942  0.23861173  0.40982889  1
  Pt  Pt646  1  0.41287057  0.23861173  0.40982889  1
  Pt  Pt647  1  0.58712942  0.58712944  0.76406927  1
  Pt  Pt648  1  0.58712942  0.41287059  0.76406927  1
  Pt  Pt649  1  0.41287057  0.58712944  0.76406927  1
  Pt  Pt650  1  0.41287057  0.41287059  0.76406927  1
  Pt  Pt651  1  0.58712942  0.58712944  0.23593073  1
  Pt  Pt652  1  0.58712942  0.41287059  0.23593073  1
  Pt  Pt653  1  0.41287057  0.58712944  0.23593073  1
  Pt  Pt654  1  0.41287057  0.41287059  0.23593073  1
  Pt  Pt655  1  0.76138826  0.63069413  0.54483180  1
  Pt  Pt656  1  0.76138826  0.63069413  0.45516820  1
  Pt  Pt657  1  0.23861173  0.63069413  0.54483180  1
  Pt  Pt658  1  0.23861173  0.63069413  0.45516820  1
  Pt  Pt659  1  0.76138826  0.36930586  0.54483180  1
  Pt  Pt660  1  0.76138826  0.36930586  0.45516820  1
  Pt  Pt661  1  0.23861173  0.36930586  0.54483180  1
  Pt  Pt662  1  0.23861173  0.36930586  0.45516820  1
  Pt  Pt663  1  0.36930588  0.23861175  0.54523911  1
  Pt  Pt664  1  0.36930588  0.76138828  0.54523911  1
  Pt  Pt665  1  0.36930588  0.76138828  0.45476089  1
  Pt  Pt666  1  0.36930588  0.23861175  0.45476089  1
  Pt  Pt667  1  0.63069415  0.76138828  0.54523911  1
  Pt  Pt668  1  0.63069415  0.76138828  0.45476089  1
  Pt  Pt669  1  0.63069415  0.23861175  0.54523911  1
  Pt  Pt670  1  0.63069415  0.23861175  0.45476089  1
  Pt  Pt671  1  0.54356471  0.76138826  0.36796538  1
  Pt  Pt672  1  0.45643528  0.76138826  0.36796538  1
  Pt  Pt673  1  0.54356471  0.76138826  0.63203464  1
  Pt  Pt674  1  0.45643528  0.76138826  0.63203464  1
  Pt  Pt675  1  0.54356471  0.23861173  0.36796538  1
  Pt  Pt676  1  0.45643528  0.23861173  0.36796538  1
  Pt  Pt677  1  0.54356471  0.23861173  0.63203464  1
  Pt  Pt678  1  0.45643528  0.23861173  0.63203464  1
  Pt  Pt679  1  0.45643531  0.63069413  0.76406927  1
  Pt  Pt680  1  0.36930588  0.54356471  0.76406927  1
  Pt  Pt681  1  0.45643531  0.63069413  0.23593073  1
  Pt  Pt682  1  0.36930588  0.54356471  0.23593073  1
  Pt  Pt683  1  0.54356473  0.63069413  0.76406927  1
  Pt  Pt684  1  0.36930588  0.45643528  0.76406927  1
  Pt  Pt685  1  0.54356473  0.63069413  0.23593073  1
  Pt  Pt686  1  0.36930588  0.45643528  0.23593073  1
  Pt  Pt687  1  0.63069415  0.54356471  0.76406927  1
  Pt  Pt688  1  0.45643531  0.36930586  0.76406927  1
  Pt  Pt689  1  0.63069415  0.54356471  0.23593073  1
  Pt  Pt690  1  0.45643531  0.36930586  0.23593073  1
  Pt  Pt691  1  0.63069415  0.45643528  0.76406927  1
  Pt  Pt692  1  0.54356473  0.36930586  0.76406927  1
  Pt  Pt693  1  0.63069415  0.45643528  0.23593073  1
  Pt  Pt694  1  0.54356473  0.36930586  0.23593073  1
  Pt  Pt695  1  0.67425884  0.67425884  0.67389815  1
  Pt  Pt696  1  0.32574115  0.67425884  0.67389815  1
  Pt  Pt697  1  0.67425884  0.67425884  0.32610184  1
  Pt  Pt698  1  0.32574115  0.67425884  0.32610184  1
  Pt  Pt699  1  0.32574115  0.32574115  0.67389815  1
  Pt  Pt700  1  0.67425884  0.32574115  0.67389815  1
  Pt  Pt701  1  0.67425884  0.32574115  0.32610184  1
  Pt  Pt702  1  0.32574115  0.32574115  0.32610184  1
  Pt  Pt703  1  0.63069413  0.71782355  0.67389815  1
  Pt  Pt704  1  0.36930586  0.71782355  0.67389815  1
  Pt  Pt705  1  0.63069413  0.71782355  0.32610184  1
  Pt  Pt706  1  0.36930586  0.71782355  0.32610184  1
  Pt  Pt707  1  0.28217644  0.63069413  0.67389815  1
  Pt  Pt708  1  0.71782355  0.63069413  0.67389815  1
  Pt  Pt709  1  0.71782355  0.63069413  0.32610184  1
  Pt  Pt710  1  0.28217644  0.63069413  0.32610184  1
  Pt  Pt711  1  0.28217644  0.36930586  0.67389815  1
  Pt  Pt712  1  0.71782355  0.36930586  0.67389815  1
  Pt  Pt713  1  0.71782355  0.36930586  0.32610184  1
  Pt  Pt714  1  0.28217644  0.36930586  0.32610184  1
  Pt  Pt715  1  0.63069413  0.28217644  0.67389815  1
  Pt  Pt716  1  0.36930586  0.28217644  0.67389815  1
  Pt  Pt717  1  0.63069413  0.28217644  0.32610184  1
  Pt  Pt718  1  0.36930586  0.28217644  0.32610184  1
  Pt  Pt719  1  0.28217646  0.71782355  0.50000000  1
  Pt  Pt720  1  0.45643531  0.80495297  0.50000000  1
  Pt  Pt721  1  0.19504704  0.54356471  0.50000000  1
  Pt  Pt722  1  0.54356473  0.80495297  0.50000000  1
  Pt  Pt723  1  0.19504704  0.45643528  0.50000000  1
  Pt  Pt724  1  0.71782357  0.71782355  0.50000000  1
  Pt  Pt725  1  0.28217646  0.28217644  0.50000000  1
  Pt  Pt726  1  0.80495299  0.54356471  0.50000000  1
  Pt  Pt727  1  0.45643531  0.19504702  0.50000000  1
  Pt  Pt728  1  0.80495299  0.45643528  0.50000000  1
  Pt  Pt729  1  0.54356473  0.19504702  0.50000000  1
  Pt  Pt730  1  0.71782357  0.28217644  0.50000000  1
  Pt  Pt731  1  0.49999999  0.80495297  0.54483180  1
  Pt  Pt732  1  0.49999999  0.80495297  0.45516820  1
  Pt  Pt733  1  0.49999999  0.19504702  0.54483180  1
  Pt  Pt734  1  0.49999999  0.19504702  0.45516820  1
  Pt  Pt735  1  0.19504704  0.50000002  0.54523911  1
  Pt  Pt736  1  0.19504704  0.50000002  0.45476089  1
  Pt  Pt737  1  0.80495299  0.50000002  0.54523911  1
  Pt  Pt738  1  0.80495299  0.50000002  0.45476089  1
  Pt  Pt739  1  0.71782355  0.67425884  0.36796538  1
  Pt  Pt740  1  0.28217644  0.67425884  0.36796538  1
  Pt  Pt741  1  0.71782355  0.67425884  0.63203464  1
  Pt  Pt742  1  0.28217644  0.67425884  0.63203464  1
  Pt  Pt743  1  0.71782355  0.32574115  0.36796538  1
  Pt  Pt744  1  0.28217644  0.32574115  0.36796538  1
  Pt  Pt745  1  0.71782355  0.32574115  0.63203464  1
  Pt  Pt746  1  0.28217644  0.32574115  0.63203464  1
  Pt  Pt747  1  0.28217646  0.50000002  0.71883015  1
  Pt  Pt748  1  0.28217646  0.50000002  0.28116984  1
  Pt  Pt749  1  0.36930588  0.32574117  0.71883015  1
  Pt  Pt750  1  0.36930588  0.67425886  0.71883015  1
  Pt  Pt751  1  0.36930588  0.67425886  0.28116984  1
  Pt  Pt752  1  0.36930588  0.32574117  0.28116984  1
  Pt  Pt753  1  0.63069415  0.67425886  0.71883015  1
  Pt  Pt754  1  0.63069415  0.32574117  0.71883015  1
  Pt  Pt755  1  0.63069415  0.67425886  0.28116984  1
  Pt  Pt756  1  0.63069415  0.32574117  0.28116984  1
  Pt  Pt757  1  0.71782357  0.50000002  0.71883015  1
  Pt  Pt758  1  0.71782357  0.50000002  0.28116984  1
  Pt  Pt759  1  0.49999999  0.71782355  0.71923747  1
  Pt  Pt760  1  0.49999999  0.71782355  0.28076253  1
  Pt  Pt761  1  0.67425884  0.63069413  0.71923747  1
  Pt  Pt762  1  0.32574115  0.63069413  0.71923747  1
  Pt  Pt763  1  0.67425884  0.63069413  0.28076253  1
  Pt  Pt764  1  0.32574115  0.63069413  0.28076253  1
  Pt  Pt765  1  0.67425884  0.36930586  0.71923747  1
  Pt  Pt766  1  0.32574115  0.36930586  0.71923747  1
  Pt  Pt767  1  0.67425884  0.36930586  0.28076253  1
  Pt  Pt768  1  0.32574115  0.36930586  0.28076253  1
  Pt  Pt769  1  0.49999999  0.28217644  0.71923747  1
  Pt  Pt770  1  0.49999999  0.28217644  0.28076253  1
  Pt  Pt771  1  0.49999999  0.54356471  0.80890107  1
  Pt  Pt772  1  0.49999999  0.54356471  0.19109893  1
  Pt  Pt773  1  0.49999999  0.45643528  0.80890107  1
  Pt  Pt774  1  0.49999999  0.45643528  0.19109893  1
  Pt  Pt775  1  0.45643531  0.50000002  0.80930838  1
  Pt  Pt776  1  0.45643531  0.50000002  0.19069162  1
  Pt  Pt777  1  0.54356473  0.50000002  0.80930838  1
  Pt  Pt778  1  0.54356473  0.50000002  0.19069162  1
  Pt  Pt779  1  0.49999999  0.76138826  0.67389815  1
  Pt  Pt780  1  0.49999999  0.76138826  0.32610184  1
  Pt  Pt781  1  0.76138826  0.49999999  0.67389815  1
  Pt  Pt782  1  0.23861173  0.49999999  0.67389815  1
  Pt  Pt783  1  0.76138826  0.49999999  0.32610184  1
  Pt  Pt784  1  0.23861173  0.49999999  0.32610184  1
  Pt  Pt785  1  0.49999999  0.23861173  0.67389815  1
  Pt  Pt786  1  0.49999999  0.23861173  0.32610184  1
  Pt  Pt787  1  0.76138826  0.67425886  0.50000000  1
  Pt  Pt788  1  0.76138826  0.32574117  0.50000000  1
  Pt  Pt789  1  0.67425884  0.76138828  0.50000000  1
  Pt  Pt790  1  0.67425884  0.23861175  0.50000000  1
  Pt  Pt791  1  0.23861173  0.67425886  0.50000000  1
  Pt  Pt792  1  0.32574115  0.23861175  0.50000000  1
  Pt  Pt793  1  0.23861173  0.32574117  0.50000000  1
  Pt  Pt794  1  0.32574115  0.76138828  0.50000000  1
  Pt  Pt795  1  0.67425884  0.50000002  0.76406927  1
  Pt  Pt796  1  0.49999999  0.67425886  0.76406927  1
  Pt  Pt797  1  0.49999999  0.32574117  0.76406927  1
  Pt  Pt798  1  0.32574115  0.50000002  0.76406927  1
  Pt  Pt799  1  0.67425884  0.50000002  0.23593073  1
  Pt  Pt800  1  0.49999999  0.67425886  0.23593073  1
  Pt  Pt801  1  0.49999999  0.32574117  0.23593073  1
  Pt  Pt802  1  0.32574115  0.50000002  0.23593073  1
  Pt  Pt803  1  0.58712942  0.80495297  0.54483180  1
  Pt  Pt804  1  0.41287057  0.80495297  0.54483180  1
  Pt  Pt805  1  0.58712942  0.80495297  0.45516820  1
  Pt  Pt806  1  0.41287057  0.80495297  0.45516820  1
  Pt  Pt807  1  0.58712942  0.19504702  0.54483180  1
  Pt  Pt808  1  0.41287057  0.19504702  0.54483180  1
  Pt  Pt809  1  0.58712942  0.19504702  0.45516820  1
  Pt  Pt810  1  0.41287057  0.19504702  0.45516820  1
  Pt  Pt811  1  0.19504704  0.41287059  0.54523911  1
  Pt  Pt812  1  0.19504704  0.58712944  0.54523911  1
  Pt  Pt813  1  0.19504704  0.58712944  0.45476089  1
  Pt  Pt814  1  0.19504704  0.41287059  0.45476089  1
  Pt  Pt815  1  0.80495299  0.58712944  0.45476089  1
  Pt  Pt816  1  0.80495299  0.58712944  0.54523911  1
  Pt  Pt817  1  0.80495299  0.41287059  0.45476089  1
  Pt  Pt818  1  0.80495299  0.41287059  0.54523911  1
  Pt  Pt819  1  0.63069413  0.76138826  0.36796538  1
  Pt  Pt820  1  0.36930586  0.76138826  0.36796538  1
  Pt  Pt821  1  0.63069413  0.76138826  0.63203464  1
  Pt  Pt822  1  0.36930586  0.76138826  0.63203464  1
  Pt  Pt823  1  0.63069413  0.23861173  0.36796538  1
  Pt  Pt824  1  0.36930586  0.23861173  0.36796538  1
  Pt  Pt825  1  0.63069413  0.23861173  0.63203464  1
  Pt  Pt826  1  0.36930586  0.23861173  0.63203464  1
  Pt  Pt827  1  0.28217646  0.58712944  0.71883015  1
  Pt  Pt828  1  0.28217646  0.41287059  0.71883015  1
  Pt  Pt829  1  0.28217646  0.58712944  0.28116984  1
  Pt  Pt830  1  0.28217646  0.41287059  0.28116984  1
  Pt  Pt831  1  0.71782357  0.58712944  0.71883015  1
  Pt  Pt832  1  0.71782357  0.41287059  0.71883015  1
  Pt  Pt833  1  0.71782357  0.58712944  0.28116984  1
  Pt  Pt834  1  0.71782357  0.41287059  0.28116984  1
  Pt  Pt835  1  0.54356471  0.80495297  0.59017111  1
  Pt  Pt836  1  0.45643528  0.80495297  0.59017111  1
  Pt  Pt837  1  0.54356471  0.80495297  0.40982889  1
  Pt  Pt838  1  0.45643528  0.80495297  0.40982889  1
  Pt  Pt839  1  0.71782355  0.71782355  0.59017111  1
  Pt  Pt840  1  0.28217644  0.71782355  0.59017111  1
  Pt  Pt841  1  0.71782355  0.71782355  0.40982889  1
  Pt  Pt842  1  0.28217644  0.71782355  0.40982889  1
  Pt  Pt843  1  0.80495297  0.54356471  0.59017111  1
  Pt  Pt844  1  0.19504702  0.54356471  0.59017111  1
  Pt  Pt845  1  0.80495297  0.54356471  0.40982889  1
  Pt  Pt846  1  0.19504702  0.54356471  0.40982889  1
  Pt  Pt847  1  0.80495297  0.45643528  0.59017111  1
  Pt  Pt848  1  0.19504702  0.45643528  0.59017111  1
  Pt  Pt849  1  0.80495297  0.45643528  0.40982889  1
  Pt  Pt850  1  0.19504702  0.45643528  0.40982889  1
  Pt  Pt851  1  0.71782355  0.28217644  0.59017111  1
  Pt  Pt852  1  0.28217644  0.28217644  0.59017111  1
  Pt  Pt853  1  0.71782355  0.28217644  0.40982889  1
  Pt  Pt854  1  0.28217644  0.28217644  0.40982889  1
  Pt  Pt855  1  0.54356471  0.19504702  0.59017111  1
  Pt  Pt856  1  0.45643528  0.19504702  0.59017111  1
  Pt  Pt857  1  0.54356471  0.19504702  0.40982889  1
  Pt  Pt858  1  0.45643528  0.19504702  0.40982889  1
  Pt  Pt859  1  0.58712942  0.71782355  0.71923747  1
  Pt  Pt860  1  0.41287057  0.71782355  0.71923747  1
  Pt  Pt861  1  0.58712942  0.71782355  0.28076253  1
  Pt  Pt862  1  0.41287057  0.71782355  0.28076253  1
  Pt  Pt863  1  0.58712942  0.28217644  0.71923747  1
  Pt  Pt864  1  0.41287057  0.28217644  0.71923747  1
  Pt  Pt865  1  0.58712942  0.28217644  0.28076253  1
  Pt  Pt866  1  0.41287057  0.28217644  0.28076253  1
  Pt  Pt867  1  0.36930588  0.63069413  0.76406927  1
  Pt  Pt868  1  0.36930588  0.63069413  0.23593073  1
  Pt  Pt869  1  0.63069415  0.63069413  0.76406927  1
  Pt  Pt870  1  0.36930588  0.36930586  0.76406927  1
  Pt  Pt871  1  0.63069415  0.63069413  0.23593073  1
  Pt  Pt872  1  0.36930588  0.36930586  0.23593073  1
  Pt  Pt873  1  0.63069415  0.36930586  0.76406927  1
  Pt  Pt874  1  0.63069415  0.36930586  0.23593073  1
  Pt  Pt875  1  0.58712942  0.54356471  0.80890107  1
  Pt  Pt876  1  0.41287057  0.54356471  0.80890107  1
  Pt  Pt877  1  0.58712942  0.54356471  0.19109893  1
  Pt  Pt878  1  0.41287057  0.54356471  0.19109893  1
  Pt  Pt879  1  0.58712942  0.45643528  0.80890107  1
  Pt  Pt880  1  0.41287057  0.45643528  0.80890107  1
  Pt  Pt881  1  0.58712942  0.45643528  0.19109893  1
  Pt  Pt882  1  0.41287057  0.45643528  0.19109893  1
  Pt  Pt883  1  0.45643531  0.58712944  0.80930838  1
  Pt  Pt884  1  0.45643531  0.41287059  0.80930838  1
  Pt  Pt885  1  0.45643531  0.58712944  0.19069162  1
  Pt  Pt886  1  0.45643531  0.41287059  0.19069162  1
  Pt  Pt887  1  0.54356473  0.58712944  0.80930838  1
  Pt  Pt888  1  0.54356473  0.41287059  0.80930838  1
  Pt  Pt889  1  0.54356473  0.58712944  0.19069162  1
  Pt  Pt890  1  0.54356473  0.41287059  0.19069162  1
  Pt  Pt891  1  0.58712942  0.76138826  0.67389815  1
  Pt  Pt892  1  0.41287057  0.76138826  0.67389815  1
  Pt  Pt893  1  0.58712942  0.76138826  0.32610184  1
  Pt  Pt894  1  0.41287057  0.76138826  0.32610184  1
  Pt  Pt895  1  0.76138826  0.58712942  0.67389815  1
  Pt  Pt896  1  0.23861173  0.58712942  0.67389815  1
  Pt  Pt897  1  0.76138826  0.58712942  0.32610184  1
  Pt  Pt898  1  0.23861173  0.58712942  0.32610184  1
  Pt  Pt899  1  0.76138826  0.41287057  0.67389815  1
  Pt  Pt900  1  0.23861173  0.41287057  0.67389815  1
  Pt  Pt901  1  0.76138826  0.41287057  0.32610184  1
  Pt  Pt902  1  0.23861173  0.41287057  0.32610184  1
  Pt  Pt903  1  0.58712942  0.23861173  0.67389815  1
  Pt  Pt904  1  0.41287057  0.23861173  0.67389815  1
  Pt  Pt905  1  0.58712942  0.23861173  0.32610184  1
  Pt  Pt906  1  0.41287057  0.23861173  0.32610184  1
  Pt  Pt907  1  0.67425884  0.76138826  0.59017111  1
  Pt  Pt908  1  0.32574115  0.76138826  0.59017111  1
  Pt  Pt909  1  0.67425884  0.76138826  0.40982889  1
  Pt  Pt910  1  0.32574115  0.76138826  0.40982889  1
  Pt  Pt911  1  0.76138826  0.67425884  0.59017111  1
  Pt  Pt912  1  0.23861173  0.67425884  0.59017111  1
  Pt  Pt913  1  0.76138826  0.67425884  0.40982889  1
  Pt  Pt914  1  0.23861173  0.67425884  0.40982889  1
  Pt  Pt915  1  0.76138826  0.32574115  0.59017111  1
  Pt  Pt916  1  0.23861173  0.32574115  0.59017111  1
  Pt  Pt917  1  0.76138826  0.32574115  0.40982889  1
  Pt  Pt918  1  0.23861173  0.32574115  0.40982889  1
  Pt  Pt919  1  0.67425884  0.23861173  0.59017111  1
  Pt  Pt920  1  0.32574115  0.23861173  0.59017111  1
  Pt  Pt921  1  0.67425884  0.23861173  0.40982889  1
  Pt  Pt922  1  0.32574115  0.23861173  0.40982889  1
  Pt  Pt923  1  0.67425884  0.58712944  0.76406927  1
  Pt  Pt924  1  0.58712942  0.67425886  0.76406927  1
  Pt  Pt925  1  0.67425884  0.41287059  0.76406927  1
  Pt  Pt926  1  0.58712942  0.32574117  0.76406927  1
  Pt  Pt927  1  0.41287057  0.32574117  0.76406927  1
  Pt  Pt928  1  0.41287057  0.67425886  0.76406927  1
  Pt  Pt929  1  0.32574115  0.58712944  0.76406927  1
  Pt  Pt930  1  0.32574115  0.41287059  0.76406927  1
  Pt  Pt931  1  0.67425884  0.58712944  0.23593073  1
  Pt  Pt932  1  0.58712942  0.67425886  0.23593073  1
  Pt  Pt933  1  0.67425884  0.41287059  0.23593073  1
  Pt  Pt934  1  0.41287057  0.67425886  0.23593073  1
  Pt  Pt935  1  0.58712942  0.32574117  0.23593073  1
  Pt  Pt936  1  0.41287057  0.32574117  0.23593073  1
  Pt  Pt937  1  0.32574115  0.58712944  0.23593073  1
  Pt  Pt938  1  0.32574115  0.41287059  0.23593073  1
  Pt  Pt939  1  0.36930588  0.80495297  0.50000000  1
  Pt  Pt940  1  0.19504704  0.63069413  0.50000000  1
  Pt  Pt941  1  0.63069415  0.80495297  0.50000000  1
  Pt  Pt942  1  0.19504704  0.36930586  0.50000000  1
  Pt  Pt943  1  0.80495299  0.63069413  0.50000000  1
  Pt  Pt944  1  0.36930588  0.19504702  0.50000000  1
  Pt  Pt945  1  0.80495299  0.36930586  0.50000000  1
  Pt  Pt946  1  0.63069415  0.19504702  0.50000000  1
  Pt  Pt947  1  0.80495297  0.49999999  0.36796538  1
  Pt  Pt948  1  0.19504702  0.49999999  0.36796538  1
  Pt  Pt949  1  0.80495297  0.49999999  0.63203464  1
  Pt  Pt950  1  0.19504702  0.49999999  0.63203464  1
