# generated using pymatgen
data_Co181Pt60
_symmetry_space_group_name_H-M   'P 1'
_cell_length_a   45.00000000
_cell_length_b   45.00000000
_cell_length_c   45.00000000
_cell_angle_alpha   90.00000000
_cell_angle_beta   90.00000000
_cell_angle_gamma   90.00000000
_symmetry_Int_Tables_number   1
_chemical_formula_structural   Co181Pt60
_chemical_formula_sum   'Co905 Pt300'
_cell_volume   91125.00000000
_cell_formula_units_Z   5
loop_
 _symmetry_equiv_pos_site_id
 _symmetry_equiv_pos_as_xyz
  1  'x, y, z'
loop_
 _atom_site_type_symbol
 _atom_site_label
 _atom_site_symmetry_multiplicity
 _atom_site_fract_x
 _atom_site_fract_y
 _atom_site_fract_z
 _atom_site_occupancy
  Co  Co0  1  0.50000000  0.50000000  0.50000000  1
  Co  Co1  1  0.50000000  0.54002047  0.45997953  1
  Co  Co2  1  0.45997953  0.50000000  0.45997953  1
  Co  Co3  1  0.45997953  0.54002047  0.50000000  1
  Co  Co4  1  0.50000000  0.45997953  0.45997953  1
  Co  Co5  1  0.54002047  0.50000000  0.45997953  1
  Co  Co6  1  0.54002047  0.54002047  0.50000000  1
  Co  Co7  1  0.45997953  0.45997953  0.50000000  1
  Co  Co8  1  0.50000000  0.54002047  0.54002047  1
  Co  Co9  1  0.45997953  0.50000000  0.54002047  1
  Co  Co10  1  0.54002047  0.45997953  0.50000000  1
  Co  Co11  1  0.50000000  0.45997953  0.54002047  1
  Co  Co12  1  0.54002047  0.50000000  0.54002047  1
  Co  Co13  1  0.50000000  0.50000000  0.41995907  1
  Co  Co14  1  0.50000000  0.58004093  0.50000000  1
  Co  Co15  1  0.41995907  0.50000000  0.50000000  1
  Co  Co16  1  0.58004093  0.50000000  0.50000000  1
  Co  Co17  1  0.50000000  0.41995907  0.50000000  1
  Co  Co18  1  0.50000000  0.50000000  0.58004093  1
  Co  Co19  1  0.45997953  0.54002047  0.41995907  1
  Co  Co20  1  0.41995907  0.54002047  0.45997953  1
  Co  Co21  1  0.45997953  0.58004093  0.45997953  1
  Co  Co22  1  0.54002047  0.54002047  0.41995907  1
  Co  Co23  1  0.45997953  0.45997953  0.41995907  1
  Co  Co24  1  0.54002047  0.58004093  0.45997953  1
  Co  Co25  1  0.41995907  0.45997953  0.45997953  1
  Co  Co26  1  0.54002047  0.45997953  0.41995907  1
  Co  Co27  1  0.58004093  0.54002047  0.45997953  1
  Co  Co28  1  0.45997953  0.58004093  0.54002047  1
  Co  Co29  1  0.45997953  0.41995907  0.45997953  1
  Co  Co30  1  0.41995907  0.54002047  0.54002047  1
  Co  Co31  1  0.41995907  0.45997953  0.54002047  1
  Co  Co32  1  0.54002047  0.58004093  0.54002047  1
  Co  Co33  1  0.54002047  0.41995907  0.45997953  1
  Co  Co34  1  0.58004093  0.45997953  0.45997953  1
  Co  Co35  1  0.45997953  0.54002047  0.58004093  1
  Co  Co36  1  0.45997953  0.41995907  0.54002047  1
  Co  Co37  1  0.58004093  0.54002047  0.54002047  1
  Co  Co38  1  0.45997953  0.45997953  0.58004093  1
  Co  Co39  1  0.54002047  0.54002047  0.58004093  1
  Co  Co40  1  0.58004093  0.45997953  0.54002047  1
  Co  Co41  1  0.54002047  0.41995907  0.54002047  1
  Co  Co42  1  0.54002047  0.45997953  0.58004093  1
  Co  Co43  1  0.41995907  0.50000000  0.41995907  1
  Co  Co44  1  0.50000000  0.58004093  0.41995907  1
  Co  Co45  1  0.41995907  0.58004093  0.50000000  1
  Co  Co46  1  0.50000000  0.41995907  0.41995907  1
  Co  Co47  1  0.58004093  0.50000000  0.41995907  1
  Co  Co48  1  0.41995907  0.41995907  0.50000000  1
  Co  Co49  1  0.58004093  0.58004093  0.50000000  1
  Co  Co50  1  0.41995907  0.50000000  0.58004093  1
  Co  Co51  1  0.50000000  0.58004093  0.58004093  1
  Co  Co52  1  0.58004093  0.41995907  0.50000000  1
  Co  Co53  1  0.58004093  0.50000000  0.58004093  1
  Co  Co54  1  0.50000000  0.41995907  0.58004093  1
  Co  Co55  1  0.45997953  0.50000000  0.37993860  1
  Co  Co56  1  0.50000000  0.54002047  0.37993860  1
  Co  Co57  1  0.54002047  0.50000000  0.37993860  1
  Co  Co58  1  0.37993860  0.50000000  0.45997953  1
  Co  Co59  1  0.50000000  0.45997953  0.37993860  1
  Co  Co60  1  0.50000000  0.62006140  0.45997953  1
  Co  Co61  1  0.45997953  0.62006140  0.50000000  1
  Co  Co62  1  0.37993860  0.54002047  0.50000000  1
  Co  Co63  1  0.37993860  0.45997953  0.50000000  1
  Co  Co64  1  0.54002047  0.62006140  0.50000000  1
  Co  Co65  1  0.37993860  0.50000000  0.54002047  1
  Co  Co66  1  0.50000000  0.62006140  0.54002047  1
  Co  Co67  1  0.50000000  0.37993860  0.45997953  1
  Co  Co68  1  0.62006140  0.50000000  0.45997953  1
  Co  Co69  1  0.62006140  0.54002047  0.50000000  1
  Co  Co70  1  0.45997953  0.37993860  0.50000000  1
  Co  Co71  1  0.62006140  0.45997953  0.50000000  1
  Co  Co72  1  0.54002047  0.37993860  0.50000000  1
  Co  Co73  1  0.62006140  0.50000000  0.54002047  1
  Co  Co74  1  0.50000000  0.37993860  0.54002047  1
  Co  Co75  1  0.45997953  0.50000000  0.62006140  1
  Co  Co76  1  0.50000000  0.54002047  0.62006140  1
  Co  Co77  1  0.54002047  0.50000000  0.62006140  1
  Co  Co78  1  0.50000000  0.45997953  0.62006140  1
  Co  Co79  1  0.41995907  0.58004093  0.41995907  1
  Co  Co80  1  0.41995907  0.41995907  0.41995907  1
  Co  Co81  1  0.58004093  0.58004093  0.41995907  1
  Co  Co82  1  0.41995907  0.58004093  0.58004093  1
  Co  Co83  1  0.58004093  0.41995907  0.41995907  1
  Co  Co84  1  0.41995907  0.41995907  0.58004093  1
  Co  Co85  1  0.58004093  0.58004093  0.58004093  1
  Co  Co86  1  0.58004093  0.41995907  0.58004093  1
  Co  Co87  1  0.41995907  0.54002047  0.37993860  1
  Co  Co88  1  0.45997953  0.58004093  0.37993860  1
  Co  Co89  1  0.45997953  0.62006140  0.41995907  1
  Co  Co90  1  0.37993860  0.54002047  0.41995907  1
  Co  Co91  1  0.41995907  0.62006140  0.45997953  1
  Co  Co92  1  0.41995907  0.45997953  0.37993860  1
  Co  Co93  1  0.37993860  0.58004093  0.45997953  1
  Co  Co94  1  0.54002047  0.58004093  0.37993860  1
  Co  Co95  1  0.54002047  0.62006140  0.41995907  1
  Co  Co96  1  0.37993860  0.45997953  0.41995907  1
  Co  Co97  1  0.58004093  0.54002047  0.37993860  1
  Co  Co98  1  0.45997953  0.41995907  0.37993860  1
  Co  Co99  1  0.37993860  0.58004093  0.54002047  1
  Co  Co100  1  0.41995907  0.62006140  0.54002047  1
  Co  Co101  1  0.58004093  0.45997953  0.37993860  1
  Co  Co102  1  0.58004093  0.62006140  0.45997953  1
  Co  Co103  1  0.54002047  0.41995907  0.37993860  1
  Co  Co104  1  0.37993860  0.41995907  0.45997953  1
  Co  Co105  1  0.45997953  0.37993860  0.41995907  1
  Co  Co106  1  0.62006140  0.54002047  0.41995907  1
  Co  Co107  1  0.41995907  0.37993860  0.45997953  1
  Co  Co108  1  0.62006140  0.58004093  0.45997953  1
  Co  Co109  1  0.62006140  0.45997953  0.41995907  1
  Co  Co110  1  0.54002047  0.37993860  0.41995907  1
  Co  Co111  1  0.37993860  0.54002047  0.58004093  1
  Co  Co112  1  0.45997953  0.62006140  0.58004093  1
  Co  Co113  1  0.58004093  0.62006140  0.54002047  1
  Co  Co114  1  0.37993860  0.41995907  0.54002047  1
  Co  Co115  1  0.54002047  0.62006140  0.58004093  1
  Co  Co116  1  0.37993860  0.45997953  0.58004093  1
  Co  Co117  1  0.41995907  0.37993860  0.54002047  1
  Co  Co118  1  0.41995907  0.54002047  0.62006140  1
  Co  Co119  1  0.58004093  0.37993860  0.45997953  1
  Co  Co120  1  0.62006140  0.58004093  0.54002047  1
  Co  Co121  1  0.62006140  0.41995907  0.45997953  1
  Co  Co122  1  0.45997953  0.58004093  0.62006140  1
  Co  Co123  1  0.41995907  0.45997953  0.62006140  1
  Co  Co124  1  0.54002047  0.58004093  0.62006140  1
  Co  Co125  1  0.62006140  0.54002047  0.58004093  1
  Co  Co126  1  0.45997953  0.37993860  0.58004093  1
  Co  Co127  1  0.45997953  0.41995907  0.62006140  1
  Co  Co128  1  0.58004093  0.54002047  0.62006140  1
  Co  Co129  1  0.58004093  0.37993860  0.54002047  1
  Co  Co130  1  0.62006140  0.41995907  0.54002047  1
  Co  Co131  1  0.54002047  0.41995907  0.62006140  1
  Co  Co132  1  0.54002047  0.37993860  0.58004093  1
  Co  Co133  1  0.62006140  0.45997953  0.58004093  1
  Co  Co134  1  0.58004093  0.45997953  0.62006140  1
  Co  Co135  1  0.50000000  0.66008187  0.50000000  1
  Co  Co136  1  0.50000000  0.50000000  0.33991813  1
  Co  Co137  1  0.33991813  0.50000000  0.50000000  1
  Co  Co138  1  0.66008187  0.50000000  0.50000000  1
  Co  Co139  1  0.50000000  0.50000000  0.66008187  1
  Co  Co140  1  0.50000000  0.33991813  0.50000000  1
  Co  Co141  1  0.50000000  0.62006140  0.37993860  1
  Co  Co142  1  0.37993860  0.50000000  0.37993860  1
  Co  Co143  1  0.37993860  0.62006140  0.50000000  1
  Co  Co144  1  0.62006140  0.50000000  0.37993860  1
  Co  Co145  1  0.50000000  0.37993860  0.37993860  1
  Co  Co146  1  0.37993860  0.37993860  0.50000000  1
  Co  Co147  1  0.62006140  0.62006140  0.50000000  1
  Co  Co148  1  0.50000000  0.62006140  0.62006140  1
  Co  Co149  1  0.37993860  0.50000000  0.62006140  1
  Co  Co150  1  0.62006140  0.37993860  0.50000000  1
  Co  Co151  1  0.62006140  0.50000000  0.62006140  1
  Co  Co152  1  0.50000000  0.37993860  0.62006140  1
  Co  Co153  1  0.45997953  0.66008187  0.45997953  1
  Co  Co154  1  0.45997953  0.54002047  0.33991813  1
  Co  Co155  1  0.54002047  0.66008187  0.45997953  1
  Co  Co156  1  0.54002047  0.54002047  0.33991813  1
  Co  Co157  1  0.45997953  0.66008187  0.54002047  1
  Co  Co158  1  0.45997953  0.45997953  0.33991813  1
  Co  Co159  1  0.33991813  0.54002047  0.45997953  1
  Co  Co160  1  0.54002047  0.45997953  0.33991813  1
  Co  Co161  1  0.33991813  0.45997953  0.45997953  1
  Co  Co162  1  0.54002047  0.66008187  0.54002047  1
  Co  Co163  1  0.33991813  0.54002047  0.54002047  1
  Co  Co164  1  0.66008187  0.54002047  0.45997953  1
  Co  Co165  1  0.33991813  0.45997953  0.54002047  1
  Co  Co166  1  0.66008187  0.45997953  0.45997953  1
  Co  Co167  1  0.45997953  0.54002047  0.66008187  1
  Co  Co168  1  0.66008187  0.54002047  0.54002047  1
  Co  Co169  1  0.45997953  0.33991813  0.45997953  1
  Co  Co170  1  0.66008187  0.45997953  0.54002047  1
  Co  Co171  1  0.54002047  0.33991813  0.45997953  1
  Co  Co172  1  0.45997953  0.45997953  0.66008187  1
  Co  Co173  1  0.54002047  0.54002047  0.66008187  1
  Co  Co174  1  0.54002047  0.45997953  0.66008187  1
  Co  Co175  1  0.45997953  0.33991813  0.54002047  1
  Co  Co176  1  0.54002047  0.33991813  0.54002047  1
  Co  Co177  1  0.50000000  0.66008187  0.41995907  1
  Co  Co178  1  0.41995907  0.66008187  0.50000000  1
  Co  Co179  1  0.50000000  0.58004093  0.33991813  1
  Co  Co180  1  0.41995907  0.50000000  0.33991813  1
  Co  Co181  1  0.33991813  0.50000000  0.41995907  1
  Co  Co182  1  0.58004093  0.66008187  0.50000000  1
  Co  Co183  1  0.33991813  0.58004093  0.50000000  1
  Co  Co184  1  0.50000000  0.66008187  0.58004093  1
  Co  Co185  1  0.58004093  0.50000000  0.33991813  1
  Co  Co186  1  0.66008187  0.50000000  0.41995907  1
  Co  Co187  1  0.50000000  0.41995907  0.33991813  1
  Co  Co188  1  0.66008187  0.58004093  0.50000000  1
  Co  Co189  1  0.50000000  0.33991813  0.41995907  1
  Co  Co190  1  0.33991813  0.50000000  0.58004093  1
  Co  Co191  1  0.33991813  0.41995907  0.50000000  1
  Co  Co192  1  0.66008187  0.41995907  0.50000000  1
  Co  Co193  1  0.41995907  0.50000000  0.66008187  1
  Co  Co194  1  0.50000000  0.58004093  0.66008187  1
  Co  Co195  1  0.41995907  0.33991813  0.50000000  1
  Co  Co196  1  0.66008187  0.50000000  0.58004093  1
  Co  Co197  1  0.50000000  0.41995907  0.66008187  1
  Co  Co198  1  0.58004093  0.50000000  0.66008187  1
  Co  Co199  1  0.58004093  0.33991813  0.50000000  1
  Co  Co200  1  0.50000000  0.33991813  0.58004093  1
  Co  Co201  1  0.37993860  0.58004093  0.37993860  1
  Co  Co202  1  0.37993860  0.62006140  0.41995907  1
  Co  Co203  1  0.41995907  0.62006140  0.37993860  1
  Co  Co204  1  0.37993860  0.41995907  0.37993860  1
  Co  Co205  1  0.58004093  0.62006140  0.37993860  1
  Co  Co206  1  0.62006140  0.58004093  0.37993860  1
  Co  Co207  1  0.41995907  0.37993860  0.37993860  1
  Co  Co208  1  0.37993860  0.37993860  0.41995907  1
  Co  Co209  1  0.62006140  0.62006140  0.41995907  1
  Co  Co210  1  0.37993860  0.62006140  0.58004093  1
  Co  Co211  1  0.62006140  0.41995907  0.37993860  1
  Co  Co212  1  0.58004093  0.37993860  0.37993860  1
  Co  Co213  1  0.37993860  0.58004093  0.62006140  1
  Co  Co214  1  0.62006140  0.37993860  0.41995907  1
  Co  Co215  1  0.41995907  0.62006140  0.62006140  1
  Co  Co216  1  0.37993860  0.37993860  0.58004093  1
  Co  Co217  1  0.62006140  0.62006140  0.58004093  1
  Co  Co218  1  0.37993860  0.41995907  0.62006140  1
  Co  Co219  1  0.58004093  0.62006140  0.62006140  1
  Co  Co220  1  0.62006140  0.58004093  0.62006140  1
  Co  Co221  1  0.41995907  0.37993860  0.62006140  1
  Co  Co222  1  0.62006140  0.37993860  0.58004093  1
  Co  Co223  1  0.62006140  0.41995907  0.62006140  1
  Co  Co224  1  0.58004093  0.37993860  0.62006140  1
  Co  Co225  1  0.41995907  0.66008187  0.41995907  1
  Co  Co226  1  0.41995907  0.58004093  0.33991813  1
  Co  Co227  1  0.33991813  0.58004093  0.41995907  1
  Co  Co228  1  0.58004093  0.66008187  0.41995907  1
  Co  Co229  1  0.58004093  0.58004093  0.33991813  1
  Co  Co230  1  0.41995907  0.41995907  0.33991813  1
  Co  Co231  1  0.41995907  0.66008187  0.58004093  1
  Co  Co232  1  0.33991813  0.41995907  0.41995907  1
  Co  Co233  1  0.66008187  0.58004093  0.41995907  1
  Co  Co234  1  0.66008187  0.41995907  0.41995907  1
  Co  Co235  1  0.33991813  0.58004093  0.58004093  1
  Co  Co236  1  0.41995907  0.33991813  0.41995907  1
  Co  Co237  1  0.58004093  0.41995907  0.33991813  1
  Co  Co238  1  0.58004093  0.66008187  0.58004093  1
  Co  Co239  1  0.41995907  0.58004093  0.66008187  1
  Co  Co240  1  0.33991813  0.41995907  0.58004093  1
  Co  Co241  1  0.58004093  0.33991813  0.41995907  1
  Co  Co242  1  0.66008187  0.58004093  0.58004093  1
  Co  Co243  1  0.66008187  0.41995907  0.58004093  1
  Co  Co244  1  0.41995907  0.41995907  0.66008187  1
  Co  Co245  1  0.41995907  0.33991813  0.58004093  1
  Co  Co246  1  0.58004093  0.58004093  0.66008187  1
  Co  Co247  1  0.58004093  0.41995907  0.66008187  1
  Co  Co248  1  0.58004093  0.33991813  0.58004093  1
  Co  Co249  1  0.50000000  0.54002047  0.29989767  1
  Co  Co250  1  0.29989767  0.50000000  0.45997953  1
  Co  Co251  1  0.45997953  0.50000000  0.29989767  1
  Co  Co252  1  0.50000000  0.70010233  0.45997953  1
  Co  Co253  1  0.54002047  0.50000000  0.29989767  1
  Co  Co254  1  0.45997953  0.70010233  0.50000000  1
  Co  Co255  1  0.29989767  0.54002047  0.50000000  1
  Co  Co256  1  0.50000000  0.45997953  0.29989767  1
  Co  Co257  1  0.29989767  0.45997953  0.50000000  1
  Co  Co258  1  0.54002047  0.70010233  0.50000000  1
  Co  Co259  1  0.50000000  0.70010233  0.54002047  1
  Co  Co260  1  0.29989767  0.50000000  0.54002047  1
  Co  Co261  1  0.50000000  0.29989767  0.45997953  1
  Co  Co262  1  0.70010233  0.50000000  0.45997953  1
  Co  Co263  1  0.45997953  0.29989767  0.50000000  1
  Co  Co264  1  0.70010233  0.54002047  0.50000000  1
  Co  Co265  1  0.54002047  0.29989767  0.50000000  1
  Co  Co266  1  0.50000000  0.29989767  0.54002047  1
  Co  Co267  1  0.70010233  0.50000000  0.54002047  1
  Co  Co268  1  0.70010233  0.45997953  0.50000000  1
  Co  Co269  1  0.50000000  0.45997953  0.70010233  1
  Co  Co270  1  0.50000000  0.54002047  0.70010233  1
  Co  Co271  1  0.54002047  0.50000000  0.70010233  1
  Co  Co272  1  0.45997953  0.50000000  0.70010233  1
  Co  Co273  1  0.45997953  0.66008187  0.37993860  1
  Co  Co274  1  0.54002047  0.66008187  0.37993860  1
  Co  Co275  1  0.45997953  0.62006140  0.33991813  1
  Co  Co276  1  0.33991813  0.62006140  0.45997953  1
  Co  Co277  1  0.37993860  0.66008187  0.45997953  1
  Co  Co278  1  0.37993860  0.66008187  0.54002047  1
  Co  Co279  1  0.33991813  0.54002047  0.37993860  1
  Co  Co280  1  0.54002047  0.62006140  0.33991813  1
  Co  Co281  1  0.37993860  0.54002047  0.33991813  1
  Co  Co282  1  0.62006140  0.66008187  0.45997953  1
  Co  Co283  1  0.33991813  0.62006140  0.54002047  1
  Co  Co284  1  0.33991813  0.45997953  0.37993860  1
  Co  Co285  1  0.37993860  0.45997953  0.33991813  1
  Co  Co286  1  0.62006140  0.54002047  0.33991813  1
  Co  Co287  1  0.66008187  0.45997953  0.37993860  1
  Co  Co288  1  0.66008187  0.62006140  0.45997953  1
  Co  Co289  1  0.62006140  0.45997953  0.33991813  1
  Co  Co290  1  0.66008187  0.54002047  0.37993860  1
  Co  Co291  1  0.45997953  0.37993860  0.33991813  1
  Co  Co292  1  0.45997953  0.33991813  0.37993860  1
  Co  Co293  1  0.54002047  0.33991813  0.37993860  1
  Co  Co294  1  0.62006140  0.66008187  0.54002047  1
  Co  Co295  1  0.45997953  0.66008187  0.62006140  1
  Co  Co296  1  0.33991813  0.37993860  0.45997953  1
  Co  Co297  1  0.54002047  0.37993860  0.33991813  1
  Co  Co298  1  0.37993860  0.33991813  0.45997953  1
  Co  Co299  1  0.54002047  0.66008187  0.62006140  1
  Co  Co300  1  0.45997953  0.62006140  0.66008187  1
  Co  Co301  1  0.66008187  0.37993860  0.45997953  1
  Co  Co302  1  0.66008187  0.62006140  0.54002047  1
  Co  Co303  1  0.37993860  0.54002047  0.66008187  1
  Co  Co304  1  0.37993860  0.33991813  0.54002047  1
  Co  Co305  1  0.33991813  0.37993860  0.54002047  1
  Co  Co306  1  0.54002047  0.62006140  0.66008187  1
  Co  Co307  1  0.33991813  0.54002047  0.62006140  1
  Co  Co308  1  0.33991813  0.45997953  0.62006140  1
  Co  Co309  1  0.37993860  0.45997953  0.66008187  1
  Co  Co310  1  0.66008187  0.37993860  0.54002047  1
  Co  Co311  1  0.66008187  0.54002047  0.62006140  1
  Co  Co312  1  0.45997953  0.37993860  0.66008187  1
  Co  Co313  1  0.62006140  0.54002047  0.66008187  1
  Co  Co314  1  0.62006140  0.33991813  0.45997953  1
  Co  Co315  1  0.54002047  0.37993860  0.66008187  1
  Co  Co316  1  0.66008187  0.45997953  0.62006140  1
  Co  Co317  1  0.62006140  0.45997953  0.66008187  1
  Co  Co318  1  0.54002047  0.33991813  0.62006140  1
  Co  Co319  1  0.45997953  0.33991813  0.62006140  1
  Co  Co320  1  0.62006140  0.33991813  0.54002047  1
  Co  Co321  1  0.45997953  0.58004093  0.29989767  1
  Co  Co322  1  0.54002047  0.58004093  0.29989767  1
  Co  Co323  1  0.29989767  0.58004093  0.45997953  1
  Co  Co324  1  0.29989767  0.54002047  0.41995907  1
  Co  Co325  1  0.41995907  0.70010233  0.45997953  1
  Co  Co326  1  0.58004093  0.54002047  0.29989767  1
  Co  Co327  1  0.45997953  0.70010233  0.41995907  1
  Co  Co328  1  0.41995907  0.54002047  0.29989767  1
  Co  Co329  1  0.58004093  0.45997953  0.29989767  1
  Co  Co330  1  0.41995907  0.45997953  0.29989767  1
  Co  Co331  1  0.29989767  0.45997953  0.41995907  1
  Co  Co332  1  0.45997953  0.41995907  0.29989767  1
  Co  Co333  1  0.54002047  0.70010233  0.41995907  1
  Co  Co334  1  0.41995907  0.70010233  0.54002047  1
  Co  Co335  1  0.29989767  0.41995907  0.45997953  1
  Co  Co336  1  0.54002047  0.41995907  0.29989767  1
  Co  Co337  1  0.58004093  0.70010233  0.45997953  1
  Co  Co338  1  0.29989767  0.58004093  0.54002047  1
  Co  Co339  1  0.45997953  0.29989767  0.41995907  1
  Co  Co340  1  0.29989767  0.45997953  0.58004093  1
  Co  Co341  1  0.70010233  0.54002047  0.41995907  1
  Co  Co342  1  0.45997953  0.70010233  0.58004093  1
  Co  Co343  1  0.29989767  0.54002047  0.58004093  1
  Co  Co344  1  0.29989767  0.41995907  0.54002047  1
  Co  Co345  1  0.54002047  0.70010233  0.58004093  1
  Co  Co346  1  0.58004093  0.70010233  0.54002047  1
  Co  Co347  1  0.41995907  0.29989767  0.45997953  1
  Co  Co348  1  0.70010233  0.58004093  0.45997953  1
  Co  Co349  1  0.70010233  0.45997953  0.41995907  1
  Co  Co350  1  0.54002047  0.29989767  0.41995907  1
  Co  Co351  1  0.70010233  0.41995907  0.45997953  1
  Co  Co352  1  0.70010233  0.58004093  0.54002047  1
  Co  Co353  1  0.58004093  0.29989767  0.45997953  1
  Co  Co354  1  0.41995907  0.29989767  0.54002047  1
  Co  Co355  1  0.45997953  0.58004093  0.70010233  1
  Co  Co356  1  0.41995907  0.54002047  0.70010233  1
  Co  Co357  1  0.58004093  0.29989767  0.54002047  1
  Co  Co358  1  0.54002047  0.58004093  0.70010233  1
  Co  Co359  1  0.70010233  0.41995907  0.54002047  1
  Co  Co360  1  0.41995907  0.45997953  0.70010233  1
  Co  Co361  1  0.54002047  0.29989767  0.58004093  1
  Co  Co362  1  0.45997953  0.41995907  0.70010233  1
  Co  Co363  1  0.58004093  0.54002047  0.70010233  1
  Co  Co364  1  0.45997953  0.29989767  0.58004093  1
  Co  Co365  1  0.70010233  0.54002047  0.58004093  1
  Co  Co366  1  0.70010233  0.45997953  0.58004093  1
  Co  Co367  1  0.54002047  0.41995907  0.70010233  1
  Co  Co368  1  0.58004093  0.45997953  0.70010233  1
  Co  Co369  1  0.50000000  0.66008187  0.33991813  1
  Co  Co370  1  0.33991813  0.66008187  0.50000000  1
  Co  Co371  1  0.33991813  0.50000000  0.33991813  1
  Co  Co372  1  0.66008187  0.66008187  0.50000000  1
  Co  Co373  1  0.66008187  0.50000000  0.33991813  1
  Co  Co374  1  0.50000000  0.66008187  0.66008187  1
  Co  Co375  1  0.50000000  0.33991813  0.33991813  1
  Co  Co376  1  0.33991813  0.33991813  0.50000000  1
  Co  Co377  1  0.33991813  0.50000000  0.66008187  1
  Co  Co378  1  0.66008187  0.33991813  0.50000000  1
  Co  Co379  1  0.66008187  0.50000000  0.66008187  1
  Co  Co380  1  0.50000000  0.33991813  0.66008187  1
  Co  Co381  1  0.50000000  0.62006140  0.29989767  1
  Co  Co382  1  0.29989767  0.62006140  0.50000000  1
  Co  Co383  1  0.50000000  0.70010233  0.37993860  1
  Co  Co384  1  0.29989767  0.50000000  0.37993860  1
  Co  Co385  1  0.37993860  0.70010233  0.50000000  1
  Co  Co386  1  0.37993860  0.50000000  0.29989767  1
  Co  Co387  1  0.62006140  0.50000000  0.29989767  1
  Co  Co388  1  0.50000000  0.37993860  0.29989767  1
  Co  Co389  1  0.50000000  0.29989767  0.37993860  1
  Co  Co390  1  0.50000000  0.70010233  0.62006140  1
  Co  Co391  1  0.62006140  0.70010233  0.50000000  1
  Co  Co392  1  0.29989767  0.50000000  0.62006140  1
  Co  Co393  1  0.70010233  0.50000000  0.37993860  1
  Co  Co394  1  0.29989767  0.37993860  0.50000000  1
  Co  Co395  1  0.37993860  0.29989767  0.50000000  1
  Co  Co396  1  0.70010233  0.62006140  0.50000000  1
  Co  Co397  1  0.50000000  0.62006140  0.70010233  1
  Co  Co398  1  0.37993860  0.50000000  0.70010233  1
  Co  Co399  1  0.62006140  0.29989767  0.50000000  1
  Co  Co400  1  0.70010233  0.37993860  0.50000000  1
  Co  Co401  1  0.50000000  0.29989767  0.62006140  1
  Co  Co402  1  0.70010233  0.50000000  0.62006140  1
  Co  Co403  1  0.62006140  0.50000000  0.70010233  1
  Co  Co404  1  0.50000000  0.37993860  0.70010233  1
  Co  Co405  1  0.37993860  0.66008187  0.37993860  1
  Co  Co406  1  0.37993860  0.62006140  0.33991813  1
  Co  Co407  1  0.33991813  0.62006140  0.37993860  1
  Co  Co408  1  0.62006140  0.66008187  0.37993860  1
  Co  Co409  1  0.66008187  0.62006140  0.37993860  1
  Co  Co410  1  0.62006140  0.62006140  0.33991813  1
  Co  Co411  1  0.37993860  0.37993860  0.33991813  1
  Co  Co412  1  0.33991813  0.37993860  0.37993860  1
  Co  Co413  1  0.37993860  0.33991813  0.37993860  1
  Co  Co414  1  0.37993860  0.66008187  0.62006140  1
  Co  Co415  1  0.66008187  0.37993860  0.37993860  1
  Co  Co416  1  0.33991813  0.62006140  0.62006140  1
  Co  Co417  1  0.37993860  0.62006140  0.66008187  1
  Co  Co418  1  0.62006140  0.37993860  0.33991813  1
  Co  Co419  1  0.62006140  0.66008187  0.62006140  1
  Co  Co420  1  0.62006140  0.33991813  0.37993860  1
  Co  Co421  1  0.66008187  0.62006140  0.62006140  1
  Co  Co422  1  0.62006140  0.62006140  0.66008187  1
  Co  Co423  1  0.37993860  0.37993860  0.66008187  1
  Co  Co424  1  0.33991813  0.37993860  0.62006140  1
  Co  Co425  1  0.37993860  0.33991813  0.62006140  1
  Co  Co426  1  0.66008187  0.37993860  0.62006140  1
  Co  Co427  1  0.62006140  0.37993860  0.66008187  1
  Co  Co428  1  0.62006140  0.33991813  0.62006140  1
  Co  Co429  1  0.50000000  0.50000000  0.25987720  1
  Co  Co430  1  0.50000000  0.74012280  0.50000000  1
  Co  Co431  1  0.25987720  0.50000000  0.50000000  1
  Co  Co432  1  0.50000000  0.50000000  0.74012280  1
  Co  Co433  1  0.50000000  0.25987720  0.50000000  1
  Co  Co434  1  0.74012280  0.50000000  0.50000000  1
  Co  Co435  1  0.41995907  0.66008187  0.33991813  1
  Co  Co436  1  0.33991813  0.66008187  0.41995907  1
  Co  Co437  1  0.58004093  0.66008187  0.33991813  1
  Co  Co438  1  0.66008187  0.66008187  0.41995907  1
  Co  Co439  1  0.66008187  0.58004093  0.33991813  1
  Co  Co440  1  0.33991813  0.58004093  0.33991813  1
  Co  Co441  1  0.33991813  0.66008187  0.58004093  1
  Co  Co442  1  0.41995907  0.66008187  0.66008187  1
  Co  Co443  1  0.66008187  0.41995907  0.33991813  1
  Co  Co444  1  0.33991813  0.41995907  0.33991813  1
  Co  Co445  1  0.33991813  0.33991813  0.41995907  1
  Co  Co446  1  0.66008187  0.66008187  0.58004093  1
  Co  Co447  1  0.41995907  0.33991813  0.33991813  1
  Co  Co448  1  0.66008187  0.33991813  0.41995907  1
  Co  Co449  1  0.58004093  0.66008187  0.66008187  1
  Co  Co450  1  0.33991813  0.58004093  0.66008187  1
  Co  Co451  1  0.66008187  0.58004093  0.66008187  1
  Co  Co452  1  0.58004093  0.33991813  0.33991813  1
  Co  Co453  1  0.33991813  0.41995907  0.66008187  1
  Co  Co454  1  0.66008187  0.41995907  0.66008187  1
  Co  Co455  1  0.33991813  0.33991813  0.58004093  1
  Co  Co456  1  0.41995907  0.33991813  0.66008187  1
  Co  Co457  1  0.66008187  0.33991813  0.58004093  1
  Co  Co458  1  0.58004093  0.33991813  0.66008187  1
  Co  Co459  1  0.41995907  0.62006140  0.29989767  1
  Co  Co460  1  0.29989767  0.62006140  0.41995907  1
  Co  Co461  1  0.41995907  0.70010233  0.37993860  1
  Co  Co462  1  0.37993860  0.58004093  0.29989767  1
  Co  Co463  1  0.29989767  0.58004093  0.37993860  1
  Co  Co464  1  0.58004093  0.62006140  0.29989767  1
  Co  Co465  1  0.37993860  0.70010233  0.41995907  1
  Co  Co466  1  0.37993860  0.41995907  0.29989767  1
  Co  Co467  1  0.29989767  0.41995907  0.37993860  1
  Co  Co468  1  0.58004093  0.70010233  0.37993860  1
  Co  Co469  1  0.62006140  0.58004093  0.29989767  1
  Co  Co470  1  0.29989767  0.37993860  0.41995907  1
  Co  Co471  1  0.29989767  0.62006140  0.58004093  1
  Co  Co472  1  0.41995907  0.37993860  0.29989767  1
  Co  Co473  1  0.62006140  0.70010233  0.41995907  1
  Co  Co474  1  0.37993860  0.70010233  0.58004093  1
  Co  Co475  1  0.37993860  0.29989767  0.41995907  1
  Co  Co476  1  0.62006140  0.41995907  0.29989767  1
  Co  Co477  1  0.70010233  0.62006140  0.41995907  1
  Co  Co478  1  0.41995907  0.29989767  0.37993860  1
  Co  Co479  1  0.58004093  0.37993860  0.29989767  1
  Co  Co480  1  0.70010233  0.58004093  0.37993860  1
  Co  Co481  1  0.29989767  0.58004093  0.62006140  1
  Co  Co482  1  0.41995907  0.70010233  0.62006140  1
  Co  Co483  1  0.70010233  0.37993860  0.41995907  1
  Co  Co484  1  0.37993860  0.58004093  0.70010233  1
  Co  Co485  1  0.62006140  0.29989767  0.41995907  1
  Co  Co486  1  0.41995907  0.62006140  0.70010233  1
  Co  Co487  1  0.58004093  0.29989767  0.37993860  1
  Co  Co488  1  0.70010233  0.41995907  0.37993860  1
  Co  Co489  1  0.58004093  0.70010233  0.62006140  1
  Co  Co490  1  0.62006140  0.70010233  0.58004093  1
  Co  Co491  1  0.29989767  0.37993860  0.58004093  1
  Co  Co492  1  0.29989767  0.41995907  0.62006140  1
  Co  Co493  1  0.37993860  0.29989767  0.58004093  1
  Co  Co494  1  0.70010233  0.62006140  0.58004093  1
  Co  Co495  1  0.41995907  0.29989767  0.62006140  1
  Co  Co496  1  0.70010233  0.58004093  0.62006140  1
  Co  Co497  1  0.37993860  0.41995907  0.70010233  1
  Co  Co498  1  0.58004093  0.62006140  0.70010233  1
  Co  Co499  1  0.58004093  0.29989767  0.62006140  1
  Co  Co500  1  0.41995907  0.37993860  0.70010233  1
  Co  Co501  1  0.62006140  0.58004093  0.70010233  1
  Co  Co502  1  0.62006140  0.29989767  0.58004093  1
  Co  Co503  1  0.70010233  0.41995907  0.62006140  1
  Co  Co504  1  0.70010233  0.37993860  0.58004093  1
  Co  Co505  1  0.62006140  0.41995907  0.70010233  1
  Co  Co506  1  0.58004093  0.37993860  0.70010233  1
  Co  Co507  1  0.45997953  0.54002047  0.25987720  1
  Co  Co508  1  0.25987720  0.54002047  0.45997953  1
  Co  Co509  1  0.45997953  0.45997953  0.25987720  1
  Co  Co510  1  0.54002047  0.45997953  0.25987720  1
  Co  Co511  1  0.45997953  0.74012280  0.45997953  1
  Co  Co512  1  0.54002047  0.54002047  0.25987720  1
  Co  Co513  1  0.25987720  0.45997953  0.45997953  1
  Co  Co514  1  0.25987720  0.54002047  0.54002047  1
  Co  Co515  1  0.54002047  0.74012280  0.45997953  1
  Co  Co516  1  0.45997953  0.74012280  0.54002047  1
  Co  Co517  1  0.25987720  0.45997953  0.54002047  1
  Co  Co518  1  0.54002047  0.74012280  0.54002047  1
  Co  Co519  1  0.74012280  0.45997953  0.45997953  1
  Co  Co520  1  0.45997953  0.25987720  0.45997953  1
  Co  Co521  1  0.74012280  0.45997953  0.54002047  1
  Co  Co522  1  0.54002047  0.25987720  0.45997953  1
  Co  Co523  1  0.54002047  0.54002047  0.74012280  1
  Co  Co524  1  0.45997953  0.54002047  0.74012280  1
  Co  Co525  1  0.45997953  0.25987720  0.54002047  1
  Co  Co526  1  0.45997953  0.45997953  0.74012280  1
  Co  Co527  1  0.54002047  0.25987720  0.54002047  1
  Co  Co528  1  0.54002047  0.45997953  0.74012280  1
  Co  Co529  1  0.74012280  0.54002047  0.45997953  1
  Co  Co530  1  0.74012280  0.54002047  0.54002047  1
  Co  Co531  1  0.50000000  0.58004093  0.25987720  1
  Co  Co532  1  0.41995907  0.74012280  0.50000000  1
  Co  Co533  1  0.25987720  0.50000000  0.41995907  1
  Co  Co534  1  0.58004093  0.50000000  0.25987720  1
  Co  Co535  1  0.50000000  0.74012280  0.41995907  1
  Co  Co536  1  0.41995907  0.50000000  0.25987720  1
  Co  Co537  1  0.25987720  0.41995907  0.50000000  1
  Co  Co538  1  0.50000000  0.41995907  0.25987720  1
  Co  Co539  1  0.25987720  0.58004093  0.50000000  1
  Co  Co540  1  0.58004093  0.74012280  0.50000000  1
  Co  Co541  1  0.25987720  0.50000000  0.58004093  1
  Co  Co542  1  0.50000000  0.74012280  0.58004093  1
  Co  Co543  1  0.50000000  0.25987720  0.41995907  1
  Co  Co544  1  0.74012280  0.41995907  0.50000000  1
  Co  Co545  1  0.41995907  0.25987720  0.50000000  1
  Co  Co546  1  0.50000000  0.58004093  0.74012280  1
  Co  Co547  1  0.41995907  0.50000000  0.74012280  1
  Co  Co548  1  0.74012280  0.50000000  0.41995907  1
  Co  Co549  1  0.58004093  0.50000000  0.74012280  1
  Co  Co550  1  0.50000000  0.41995907  0.74012280  1
  Co  Co551  1  0.50000000  0.25987720  0.58004093  1
  Co  Co552  1  0.58004093  0.25987720  0.50000000  1
  Co  Co553  1  0.74012280  0.58004093  0.50000000  1
  Co  Co554  1  0.74012280  0.50000000  0.58004093  1
  Co  Co555  1  0.45997953  0.66008187  0.29989767  1
  Co  Co556  1  0.54002047  0.66008187  0.29989767  1
  Co  Co557  1  0.29989767  0.66008187  0.45997953  1
  Co  Co558  1  0.45997953  0.70010233  0.33991813  1
  Co  Co559  1  0.33991813  0.54002047  0.29989767  1
  Co  Co560  1  0.29989767  0.66008187  0.54002047  1
  Co  Co561  1  0.33991813  0.70010233  0.45997953  1
  Co  Co562  1  0.29989767  0.54002047  0.33991813  1
  Co  Co563  1  0.54002047  0.70010233  0.33991813  1
  Co  Co564  1  0.29989767  0.45997953  0.33991813  1
  Co  Co565  1  0.66008187  0.54002047  0.29989767  1
  Co  Co566  1  0.66008187  0.45997953  0.29989767  1
  Co  Co567  1  0.33991813  0.45997953  0.29989767  1
  Co  Co568  1  0.33991813  0.70010233  0.54002047  1
  Co  Co569  1  0.66008187  0.70010233  0.45997953  1
  Co  Co570  1  0.70010233  0.54002047  0.33991813  1
  Co  Co571  1  0.54002047  0.33991813  0.29989767  1
  Co  Co572  1  0.54002047  0.70010233  0.66008187  1
  Co  Co573  1  0.70010233  0.66008187  0.45997953  1
  Co  Co574  1  0.54002047  0.29989767  0.33991813  1
  Co  Co575  1  0.45997953  0.29989767  0.33991813  1
  Co  Co576  1  0.45997953  0.33991813  0.29989767  1
  Co  Co577  1  0.45997953  0.70010233  0.66008187  1
  Co  Co578  1  0.29989767  0.45997953  0.66008187  1
  Co  Co579  1  0.70010233  0.45997953  0.33991813  1
  Co  Co580  1  0.29989767  0.54002047  0.66008187  1
  Co  Co581  1  0.66008187  0.70010233  0.54002047  1
  Co  Co582  1  0.70010233  0.66008187  0.54002047  1
  Co  Co583  1  0.45997953  0.66008187  0.70010233  1
  Co  Co584  1  0.33991813  0.29989767  0.45997953  1
  Co  Co585  1  0.29989767  0.33991813  0.45997953  1
  Co  Co586  1  0.54002047  0.66008187  0.70010233  1
  Co  Co587  1  0.33991813  0.54002047  0.70010233  1
  Co  Co588  1  0.33991813  0.29989767  0.54002047  1
  Co  Co589  1  0.66008187  0.29989767  0.45997953  1
  Co  Co590  1  0.29989767  0.33991813  0.54002047  1
  Co  Co591  1  0.66008187  0.54002047  0.70010233  1
  Co  Co592  1  0.66008187  0.29989767  0.54002047  1
  Co  Co593  1  0.70010233  0.33991813  0.45997953  1
  Co  Co594  1  0.70010233  0.54002047  0.66008187  1
  Co  Co595  1  0.33991813  0.45997953  0.70010233  1
  Co  Co596  1  0.45997953  0.29989767  0.66008187  1
  Co  Co597  1  0.70010233  0.45997953  0.66008187  1
  Co  Co598  1  0.54002047  0.29989767  0.66008187  1
  Co  Co599  1  0.66008187  0.45997953  0.70010233  1
  Co  Co600  1  0.45997953  0.33991813  0.70010233  1
  Co  Co601  1  0.70010233  0.33991813  0.54002047  1
  Co  Co602  1  0.54002047  0.33991813  0.70010233  1
  Co  Co603  1  0.41995907  0.58004093  0.25987720  1
  Co  Co604  1  0.25987720  0.58004093  0.41995907  1
  Co  Co605  1  0.58004093  0.58004093  0.25987720  1
  Co  Co606  1  0.41995907  0.74012280  0.41995907  1
  Co  Co607  1  0.25987720  0.41995907  0.41995907  1
  Co  Co608  1  0.58004093  0.41995907  0.25987720  1
  Co  Co609  1  0.41995907  0.41995907  0.25987720  1
  Co  Co610  1  0.58004093  0.74012280  0.41995907  1
  Co  Co611  1  0.41995907  0.74012280  0.58004093  1
  Co  Co612  1  0.25987720  0.58004093  0.58004093  1
  Co  Co613  1  0.25987720  0.41995907  0.58004093  1
  Co  Co614  1  0.74012280  0.41995907  0.41995907  1
  Co  Co615  1  0.41995907  0.25987720  0.41995907  1
  Co  Co616  1  0.41995907  0.58004093  0.74012280  1
  Co  Co617  1  0.58004093  0.74012280  0.58004093  1
  Co  Co618  1  0.74012280  0.41995907  0.58004093  1
  Co  Co619  1  0.58004093  0.25987720  0.41995907  1
  Co  Co620  1  0.74012280  0.58004093  0.41995907  1
  Co  Co621  1  0.58004093  0.58004093  0.74012280  1
  Co  Co622  1  0.58004093  0.41995907  0.74012280  1
  Co  Co623  1  0.41995907  0.41995907  0.74012280  1
  Co  Co624  1  0.41995907  0.25987720  0.58004093  1
  Co  Co625  1  0.58004093  0.25987720  0.58004093  1
  Co  Co626  1  0.74012280  0.58004093  0.58004093  1
  Co  Co627  1  0.45997953  0.62006140  0.25987720  1
  Co  Co628  1  0.45997953  0.74012280  0.37993860  1
  Co  Co629  1  0.54002047  0.62006140  0.25987720  1
  Co  Co630  1  0.37993860  0.74012280  0.45997953  1
  Co  Co631  1  0.37993860  0.54002047  0.25987720  1
  Co  Co632  1  0.25987720  0.62006140  0.45997953  1
  Co  Co633  1  0.25987720  0.54002047  0.37993860  1
  Co  Co634  1  0.37993860  0.45997953  0.25987720  1
  Co  Co635  1  0.54002047  0.74012280  0.37993860  1
  Co  Co636  1  0.37993860  0.74012280  0.54002047  1
  Co  Co637  1  0.25987720  0.62006140  0.54002047  1
  Co  Co638  1  0.25987720  0.45997953  0.37993860  1
  Co  Co639  1  0.62006140  0.54002047  0.25987720  1
  Co  Co640  1  0.62006140  0.45997953  0.25987720  1
  Co  Co641  1  0.45997953  0.37993860  0.25987720  1
  Co  Co642  1  0.62006140  0.74012280  0.45997953  1
  Co  Co643  1  0.45997953  0.74012280  0.62006140  1
  Co  Co644  1  0.45997953  0.25987720  0.37993860  1
  Co  Co645  1  0.54002047  0.37993860  0.25987720  1
  Co  Co646  1  0.25987720  0.37993860  0.45997953  1
  Co  Co647  1  0.25987720  0.54002047  0.62006140  1
  Co  Co648  1  0.74012280  0.45997953  0.37993860  1
  Co  Co649  1  0.25987720  0.37993860  0.54002047  1
  Co  Co650  1  0.25987720  0.45997953  0.62006140  1
  Co  Co651  1  0.54002047  0.25987720  0.37993860  1
  Co  Co652  1  0.74012280  0.54002047  0.37993860  1
  Co  Co653  1  0.74012280  0.37993860  0.45997953  1
  Co  Co654  1  0.37993860  0.45997953  0.74012280  1
  Co  Co655  1  0.37993860  0.25987720  0.54002047  1
  Co  Co656  1  0.62006140  0.74012280  0.54002047  1
  Co  Co657  1  0.37993860  0.54002047  0.74012280  1
  Co  Co658  1  0.45997953  0.62006140  0.74012280  1
  Co  Co659  1  0.54002047  0.74012280  0.62006140  1
  Co  Co660  1  0.37993860  0.25987720  0.45997953  1
  Co  Co661  1  0.54002047  0.62006140  0.74012280  1
  Co  Co662  1  0.62006140  0.54002047  0.74012280  1
  Co  Co663  1  0.62006140  0.25987720  0.45997953  1
  Co  Co664  1  0.74012280  0.37993860  0.54002047  1
  Co  Co665  1  0.45997953  0.37993860  0.74012280  1
  Co  Co666  1  0.74012280  0.45997953  0.62006140  1
  Co  Co667  1  0.74012280  0.62006140  0.45997953  1
  Co  Co668  1  0.62006140  0.25987720  0.54002047  1
  Co  Co669  1  0.45997953  0.25987720  0.62006140  1
  Co  Co670  1  0.54002047  0.37993860  0.74012280  1
  Co  Co671  1  0.62006140  0.45997953  0.74012280  1
  Co  Co672  1  0.54002047  0.25987720  0.62006140  1
  Co  Co673  1  0.74012280  0.62006140  0.54002047  1
  Co  Co674  1  0.74012280  0.54002047  0.62006140  1
  Co  Co675  1  0.33991813  0.66008187  0.33991813  1
  Co  Co676  1  0.66008187  0.66008187  0.33991813  1
  Co  Co677  1  0.33991813  0.66008187  0.66008187  1
  Co  Co678  1  0.66008187  0.66008187  0.66008187  1
  Co  Co679  1  0.33991813  0.33991813  0.33991813  1
  Co  Co680  1  0.66008187  0.33991813  0.33991813  1
  Co  Co681  1  0.33991813  0.33991813  0.66008187  1
  Co  Co682  1  0.66008187  0.33991813  0.66008187  1
  Co  Co683  1  0.29989767  0.50000000  0.29989767  1
  Co  Co684  1  0.29989767  0.70010233  0.50000000  1
  Co  Co685  1  0.50000000  0.70010233  0.29989767  1
  Co  Co686  1  0.70010233  0.50000000  0.29989767  1
  Co  Co687  1  0.70010233  0.70010233  0.50000000  1
  Co  Co688  1  0.50000000  0.29989767  0.29989767  1
  Co  Co689  1  0.29989767  0.50000000  0.70010233  1
  Co  Co690  1  0.50000000  0.70010233  0.70010233  1
  Co  Co691  1  0.29989767  0.29989767  0.50000000  1
  Co  Co692  1  0.70010233  0.29989767  0.50000000  1
  Co  Co693  1  0.70010233  0.50000000  0.70010233  1
  Co  Co694  1  0.50000000  0.29989767  0.70010233  1
  Co  Co695  1  0.37993860  0.66008187  0.29989767  1
  Co  Co696  1  0.29989767  0.66008187  0.37993860  1
  Co  Co697  1  0.33991813  0.62006140  0.29989767  1
  Co  Co698  1  0.29989767  0.62006140  0.33991813  1
  Co  Co699  1  0.37993860  0.70010233  0.33991813  1
  Co  Co700  1  0.33991813  0.70010233  0.37993860  1
  Co  Co701  1  0.66008187  0.62006140  0.29989767  1
  Co  Co702  1  0.62006140  0.66008187  0.29989767  1
  Co  Co703  1  0.66008187  0.70010233  0.37993860  1
  Co  Co704  1  0.29989767  0.66008187  0.62006140  1
  Co  Co705  1  0.62006140  0.70010233  0.33991813  1
  Co  Co706  1  0.33991813  0.37993860  0.29989767  1
  Co  Co707  1  0.29989767  0.37993860  0.33991813  1
  Co  Co708  1  0.66008187  0.37993860  0.29989767  1
  Co  Co709  1  0.70010233  0.66008187  0.37993860  1
  Co  Co710  1  0.29989767  0.62006140  0.66008187  1
  Co  Co711  1  0.70010233  0.62006140  0.33991813  1
  Co  Co712  1  0.37993860  0.33991813  0.29989767  1
  Co  Co713  1  0.37993860  0.29989767  0.33991813  1
  Co  Co714  1  0.37993860  0.70010233  0.66008187  1
  Co  Co715  1  0.33991813  0.70010233  0.62006140  1
  Co  Co716  1  0.29989767  0.33991813  0.37993860  1
  Co  Co717  1  0.37993860  0.66008187  0.70010233  1
  Co  Co718  1  0.66008187  0.70010233  0.62006140  1
  Co  Co719  1  0.70010233  0.37993860  0.33991813  1
  Co  Co720  1  0.33991813  0.29989767  0.37993860  1
  Co  Co721  1  0.66008187  0.29989767  0.37993860  1
  Co  Co722  1  0.62006140  0.33991813  0.29989767  1
  Co  Co723  1  0.33991813  0.62006140  0.70010233  1
  Co  Co724  1  0.62006140  0.29989767  0.33991813  1
  Co  Co725  1  0.70010233  0.66008187  0.62006140  1
  Co  Co726  1  0.70010233  0.33991813  0.37993860  1
  Co  Co727  1  0.62006140  0.70010233  0.66008187  1
  Co  Co728  1  0.62006140  0.66008187  0.70010233  1
  Co  Co729  1  0.29989767  0.37993860  0.66008187  1
  Co  Co730  1  0.33991813  0.29989767  0.62006140  1
  Co  Co731  1  0.33991813  0.37993860  0.70010233  1
  Co  Co732  1  0.66008187  0.62006140  0.70010233  1
  Co  Co733  1  0.29989767  0.33991813  0.62006140  1
  Co  Co734  1  0.70010233  0.62006140  0.66008187  1
  Co  Co735  1  0.37993860  0.29989767  0.66008187  1
  Co  Co736  1  0.66008187  0.29989767  0.62006140  1
  Co  Co737  1  0.37993860  0.33991813  0.70010233  1
  Co  Co738  1  0.70010233  0.33991813  0.62006140  1
  Co  Co739  1  0.70010233  0.37993860  0.66008187  1
  Co  Co740  1  0.62006140  0.29989767  0.66008187  1
  Co  Co741  1  0.66008187  0.37993860  0.70010233  1
  Co  Co742  1  0.62006140  0.33991813  0.70010233  1
  Co  Co743  1  0.50000000  0.54002047  0.21985673  1
  Co  Co744  1  0.45997953  0.50000000  0.21985673  1
  Co  Co745  1  0.54002047  0.50000000  0.21985673  1
  Co  Co746  1  0.50000000  0.45997953  0.21985673  1
  Co  Co747  1  0.21985673  0.54002047  0.50000000  1
  Co  Co748  1  0.21985673  0.50000000  0.45997953  1
  Co  Co749  1  0.21985673  0.45997953  0.50000000  1
  Co  Co750  1  0.21985673  0.50000000  0.54002047  1
  Co  Co751  1  0.50000000  0.78014327  0.45997953  1
  Co  Co752  1  0.45997953  0.78014327  0.50000000  1
  Co  Co753  1  0.54002047  0.78014327  0.50000000  1
  Co  Co754  1  0.50000000  0.78014327  0.54002047  1
  Co  Co755  1  0.50000000  0.21985673  0.45997953  1
  Co  Co756  1  0.78014327  0.45997953  0.50000000  1
  Co  Co757  1  0.54002047  0.21985673  0.50000000  1
  Co  Co758  1  0.45997953  0.21985673  0.50000000  1
  Co  Co759  1  0.54002047  0.50000000  0.78014327  1
  Co  Co760  1  0.50000000  0.21985673  0.54002047  1
  Co  Co761  1  0.45997953  0.50000000  0.78014327  1
  Co  Co762  1  0.50000000  0.45997953  0.78014327  1
  Co  Co763  1  0.50000000  0.54002047  0.78014327  1
  Co  Co764  1  0.78014327  0.54002047  0.50000000  1
  Co  Co765  1  0.78014327  0.50000000  0.45997953  1
  Co  Co766  1  0.78014327  0.50000000  0.54002047  1
  Co  Co767  1  0.50000000  0.66008187  0.25987720  1
  Co  Co768  1  0.25987720  0.66008187  0.50000000  1
  Co  Co769  1  0.50000000  0.74012280  0.33991813  1
  Co  Co770  1  0.33991813  0.50000000  0.25987720  1
  Co  Co771  1  0.25987720  0.50000000  0.33991813  1
  Co  Co772  1  0.33991813  0.74012280  0.50000000  1
  Co  Co773  1  0.66008187  0.50000000  0.25987720  1
  Co  Co774  1  0.50000000  0.33991813  0.25987720  1
  Co  Co775  1  0.25987720  0.33991813  0.50000000  1
  Co  Co776  1  0.25987720  0.50000000  0.66008187  1
  Co  Co777  1  0.66008187  0.74012280  0.50000000  1
  Co  Co778  1  0.50000000  0.66008187  0.74012280  1
  Co  Co779  1  0.50000000  0.25987720  0.33991813  1
  Co  Co780  1  0.50000000  0.74012280  0.66008187  1
  Co  Co781  1  0.33991813  0.25987720  0.50000000  1
  Co  Co782  1  0.74012280  0.33991813  0.50000000  1
  Co  Co783  1  0.74012280  0.50000000  0.33991813  1
  Co  Co784  1  0.33991813  0.50000000  0.74012280  1
  Co  Co785  1  0.74012280  0.66008187  0.50000000  1
  Co  Co786  1  0.66008187  0.25987720  0.50000000  1
  Co  Co787  1  0.66008187  0.50000000  0.74012280  1
  Co  Co788  1  0.50000000  0.25987720  0.66008187  1
  Co  Co789  1  0.50000000  0.33991813  0.74012280  1
  Co  Co790  1  0.74012280  0.50000000  0.66008187  1
  Co  Co791  1  0.41995907  0.70010233  0.29989767  1
  Co  Co792  1  0.29989767  0.58004093  0.29989767  1
  Co  Co793  1  0.29989767  0.70010233  0.41995907  1
  Co  Co794  1  0.58004093  0.70010233  0.29989767  1
  Co  Co795  1  0.29989767  0.41995907  0.29989767  1
  Co  Co796  1  0.70010233  0.58004093  0.29989767  1
  Co  Co797  1  0.29989767  0.70010233  0.58004093  1
  Co  Co798  1  0.70010233  0.41995907  0.29989767  1
  Co  Co799  1  0.41995907  0.29989767  0.29989767  1
  Co  Co800  1  0.70010233  0.70010233  0.41995907  1
  Co  Co801  1  0.29989767  0.29989767  0.41995907  1
  Co  Co802  1  0.41995907  0.70010233  0.70010233  1
  Co  Co803  1  0.58004093  0.29989767  0.29989767  1
  Co  Co804  1  0.70010233  0.70010233  0.58004093  1
  Co  Co805  1  0.29989767  0.58004093  0.70010233  1
  Co  Co806  1  0.29989767  0.29989767  0.58004093  1
  Co  Co807  1  0.70010233  0.29989767  0.41995907  1
  Co  Co808  1  0.58004093  0.70010233  0.70010233  1
  Co  Co809  1  0.29989767  0.41995907  0.70010233  1
  Co  Co810  1  0.41995907  0.29989767  0.70010233  1
  Co  Co811  1  0.70010233  0.29989767  0.58004093  1
  Co  Co812  1  0.70010233  0.58004093  0.70010233  1
  Co  Co813  1  0.70010233  0.41995907  0.70010233  1
  Co  Co814  1  0.58004093  0.29989767  0.70010233  1
  Co  Co815  1  0.25987720  0.62006140  0.37993860  1
  Co  Co816  1  0.37993860  0.62006140  0.25987720  1
  Co  Co817  1  0.37993860  0.74012280  0.37993860  1
  Co  Co818  1  0.62006140  0.62006140  0.25987720  1
  Co  Co819  1  0.37993860  0.37993860  0.25987720  1
  Co  Co820  1  0.25987720  0.37993860  0.37993860  1
  Co  Co821  1  0.25987720  0.62006140  0.62006140  1
  Co  Co822  1  0.37993860  0.74012280  0.62006140  1
  Co  Co823  1  0.62006140  0.74012280  0.37993860  1
  Co  Co824  1  0.62006140  0.37993860  0.25987720  1
  Co  Co825  1  0.74012280  0.37993860  0.37993860  1
  Co  Co826  1  0.37993860  0.62006140  0.74012280  1
  Co  Co827  1  0.37993860  0.25987720  0.37993860  1
  Co  Co828  1  0.25987720  0.37993860  0.62006140  1
  Co  Co829  1  0.74012280  0.62006140  0.37993860  1
  Co  Co830  1  0.62006140  0.25987720  0.37993860  1
  Co  Co831  1  0.62006140  0.74012280  0.62006140  1
  Co  Co832  1  0.74012280  0.37993860  0.62006140  1
  Co  Co833  1  0.62006140  0.62006140  0.74012280  1
  Co  Co834  1  0.37993860  0.37993860  0.74012280  1
  Co  Co835  1  0.37993860  0.25987720  0.62006140  1
  Co  Co836  1  0.62006140  0.37993860  0.74012280  1
  Co  Co837  1  0.62006140  0.25987720  0.62006140  1
  Co  Co838  1  0.74012280  0.62006140  0.62006140  1
  Co  Co839  1  0.58004093  0.54002047  0.21985673  1
  Co  Co840  1  0.54002047  0.58004093  0.21985673  1
  Co  Co841  1  0.45997953  0.58004093  0.21985673  1
  Co  Co842  1  0.41995907  0.54002047  0.21985673  1
  Co  Co843  1  0.54002047  0.41995907  0.21985673  1
  Co  Co844  1  0.41995907  0.45997953  0.21985673  1
  Co  Co845  1  0.45997953  0.41995907  0.21985673  1
  Co  Co846  1  0.58004093  0.45997953  0.21985673  1
  Co  Co847  1  0.21985673  0.58004093  0.45997953  1
  Co  Co848  1  0.21985673  0.54002047  0.41995907  1
  Co  Co849  1  0.21985673  0.45997953  0.41995907  1
  Co  Co850  1  0.21985673  0.41995907  0.45997953  1
  Co  Co851  1  0.41995907  0.78014327  0.45997953  1
  Co  Co852  1  0.45997953  0.78014327  0.41995907  1
  Co  Co853  1  0.21985673  0.58004093  0.54002047  1
  Co  Co854  1  0.41995907  0.78014327  0.54002047  1
  Co  Co855  1  0.21985673  0.41995907  0.54002047  1
  Co  Co856  1  0.54002047  0.78014327  0.41995907  1
  Co  Co857  1  0.21985673  0.54002047  0.58004093  1
  Co  Co858  1  0.21985673  0.45997953  0.58004093  1
  Co  Co859  1  0.45997953  0.78014327  0.58004093  1
  Co  Co860  1  0.58004093  0.78014327  0.45997953  1
  Co  Co861  1  0.54002047  0.21985673  0.41995907  1
  Co  Co862  1  0.58004093  0.78014327  0.54002047  1
  Co  Co863  1  0.58004093  0.21985673  0.45997953  1
  Co  Co864  1  0.41995907  0.21985673  0.45997953  1
  Co  Co865  1  0.78014327  0.45997953  0.41995907  1
  Co  Co866  1  0.78014327  0.41995907  0.45997953  1
  Co  Co867  1  0.54002047  0.78014327  0.58004093  1
  Co  Co868  1  0.45997953  0.21985673  0.41995907  1
  Co  Co869  1  0.41995907  0.21985673  0.54002047  1
  Co  Co870  1  0.58004093  0.21985673  0.54002047  1
  Co  Co871  1  0.41995907  0.54002047  0.78014327  1
  Co  Co872  1  0.78014327  0.45997953  0.58004093  1
  Co  Co873  1  0.45997953  0.58004093  0.78014327  1
  Co  Co874  1  0.78014327  0.41995907  0.54002047  1
  Co  Co875  1  0.45997953  0.21985673  0.58004093  1
  Co  Co876  1  0.54002047  0.21985673  0.58004093  1
  Co  Co877  1  0.54002047  0.58004093  0.78014327  1
  Co  Co878  1  0.41995907  0.45997953  0.78014327  1
  Co  Co879  1  0.58004093  0.45997953  0.78014327  1
  Co  Co880  1  0.45997953  0.41995907  0.78014327  1
  Co  Co881  1  0.58004093  0.54002047  0.78014327  1
  Co  Co882  1  0.54002047  0.41995907  0.78014327  1
  Co  Co883  1  0.78014327  0.54002047  0.41995907  1
  Co  Co884  1  0.78014327  0.58004093  0.45997953  1
  Co  Co885  1  0.78014327  0.54002047  0.58004093  1
  Co  Co886  1  0.78014327  0.58004093  0.54002047  1
  Co  Co887  1  0.41995907  0.66008187  0.25987720  1
  Co  Co888  1  0.25987720  0.66008187  0.41995907  1
  Co  Co889  1  0.41995907  0.74012280  0.33991813  1
  Co  Co890  1  0.58004093  0.66008187  0.25987720  1
  Co  Co891  1  0.33991813  0.74012280  0.41995907  1
  Co  Co892  1  0.25987720  0.58004093  0.33991813  1
  Co  Co893  1  0.25987720  0.41995907  0.33991813  1
  Co  Co894  1  0.25987720  0.66008187  0.58004093  1
  Co  Co895  1  0.33991813  0.58004093  0.25987720  1
  Co  Co896  1  0.66008187  0.58004093  0.25987720  1
  Co  Co897  1  0.58004093  0.74012280  0.33991813  1
  Co  Co898  1  0.33991813  0.74012280  0.58004093  1
  Co  Co899  1  0.74012280  0.41995907  0.33991813  1
  Co  Co900  1  0.33991813  0.41995907  0.25987720  1
  Co  Co901  1  0.41995907  0.33991813  0.25987720  1
  Co  Co902  1  0.66008187  0.41995907  0.25987720  1
  Co  Co903  1  0.41995907  0.74012280  0.66008187  1
  Co  Co904  1  0.25987720  0.58004093  0.66008187  1
  Pt  Pt905  1  0.66008187  0.74012280  0.41995907  1
  Pt  Pt906  1  0.41995907  0.66008187  0.74012280  1
  Pt  Pt907  1  0.33991813  0.58004093  0.74012280  1
  Pt  Pt908  1  0.25987720  0.41995907  0.66008187  1
  Pt  Pt909  1  0.74012280  0.33991813  0.41995907  1
  Pt  Pt910  1  0.58004093  0.66008187  0.74012280  1
  Pt  Pt911  1  0.58004093  0.74012280  0.66008187  1
  Pt  Pt912  1  0.41995907  0.25987720  0.33991813  1
  Pt  Pt913  1  0.25987720  0.33991813  0.41995907  1
  Pt  Pt914  1  0.74012280  0.66008187  0.41995907  1
  Pt  Pt915  1  0.58004093  0.33991813  0.25987720  1
  Pt  Pt916  1  0.33991813  0.25987720  0.41995907  1
  Pt  Pt917  1  0.25987720  0.33991813  0.58004093  1
  Pt  Pt918  1  0.58004093  0.25987720  0.33991813  1
  Pt  Pt919  1  0.74012280  0.41995907  0.66008187  1
  Pt  Pt920  1  0.66008187  0.25987720  0.41995907  1
  Pt  Pt921  1  0.33991813  0.41995907  0.74012280  1
  Pt  Pt922  1  0.66008187  0.58004093  0.74012280  1
  Pt  Pt923  1  0.33991813  0.25987720  0.58004093  1
  Pt  Pt924  1  0.74012280  0.58004093  0.33991813  1
  Pt  Pt925  1  0.66008187  0.74012280  0.58004093  1
  Pt  Pt926  1  0.74012280  0.66008187  0.58004093  1
  Pt  Pt927  1  0.74012280  0.33991813  0.58004093  1
  Pt  Pt928  1  0.66008187  0.41995907  0.74012280  1
  Pt  Pt929  1  0.66008187  0.25987720  0.58004093  1
  Pt  Pt930  1  0.41995907  0.25987720  0.66008187  1
  Pt  Pt931  1  0.41995907  0.33991813  0.74012280  1
  Pt  Pt932  1  0.58004093  0.33991813  0.74012280  1
  Pt  Pt933  1  0.58004093  0.25987720  0.66008187  1
  Pt  Pt934  1  0.74012280  0.58004093  0.66008187  1
  Pt  Pt935  1  0.21985673  0.62006140  0.50000000  1
  Pt  Pt936  1  0.50000000  0.62006140  0.21985673  1
  Pt  Pt937  1  0.37993860  0.50000000  0.21985673  1
  Pt  Pt938  1  0.21985673  0.50000000  0.37993860  1
  Pt  Pt939  1  0.62006140  0.50000000  0.21985673  1
  Pt  Pt940  1  0.37993860  0.78014327  0.50000000  1
  Pt  Pt941  1  0.50000000  0.78014327  0.37993860  1
  Pt  Pt942  1  0.50000000  0.37993860  0.21985673  1
  Pt  Pt943  1  0.21985673  0.37993860  0.50000000  1
  Pt  Pt944  1  0.50000000  0.21985673  0.37993860  1
  Pt  Pt945  1  0.21985673  0.50000000  0.62006140  1
  Pt  Pt946  1  0.62006140  0.78014327  0.50000000  1
  Pt  Pt947  1  0.50000000  0.78014327  0.62006140  1
  Pt  Pt948  1  0.37993860  0.21985673  0.50000000  1
  Pt  Pt949  1  0.78014327  0.37993860  0.50000000  1
  Pt  Pt950  1  0.37993860  0.50000000  0.78014327  1
  Pt  Pt951  1  0.62006140  0.21985673  0.50000000  1
  Pt  Pt952  1  0.50000000  0.62006140  0.78014327  1
  Pt  Pt953  1  0.50000000  0.21985673  0.62006140  1
  Pt  Pt954  1  0.78014327  0.50000000  0.37993860  1
  Pt  Pt955  1  0.78014327  0.62006140  0.50000000  1
  Pt  Pt956  1  0.62006140  0.50000000  0.78014327  1
  Pt  Pt957  1  0.50000000  0.37993860  0.78014327  1
  Pt  Pt958  1  0.78014327  0.50000000  0.62006140  1
  Pt  Pt959  1  0.45997953  0.70010233  0.25987720  1
  Pt  Pt960  1  0.54002047  0.70010233  0.25987720  1
  Pt  Pt961  1  0.45997953  0.74012280  0.29989767  1
  Pt  Pt962  1  0.29989767  0.54002047  0.25987720  1
  Pt  Pt963  1  0.29989767  0.45997953  0.25987720  1
  Pt  Pt964  1  0.54002047  0.74012280  0.29989767  1
  Pt  Pt965  1  0.29989767  0.74012280  0.45997953  1
  Pt  Pt966  1  0.25987720  0.45997953  0.29989767  1
  Pt  Pt967  1  0.25987720  0.54002047  0.29989767  1
  Pt  Pt968  1  0.25987720  0.70010233  0.45997953  1
  Pt  Pt969  1  0.25987720  0.70010233  0.54002047  1
  Pt  Pt970  1  0.29989767  0.74012280  0.54002047  1
  Pt  Pt971  1  0.70010233  0.54002047  0.25987720  1
  Pt  Pt972  1  0.74012280  0.45997953  0.29989767  1
  Pt  Pt973  1  0.70010233  0.45997953  0.25987720  1
  Pt  Pt974  1  0.54002047  0.29989767  0.25987720  1
  Pt  Pt975  1  0.45997953  0.25987720  0.29989767  1
  Pt  Pt976  1  0.45997953  0.29989767  0.25987720  1
  Pt  Pt977  1  0.29989767  0.54002047  0.74012280  1
  Pt  Pt978  1  0.25987720  0.54002047  0.70010233  1
  Pt  Pt979  1  0.74012280  0.29989767  0.45997953  1
  Pt  Pt980  1  0.45997953  0.70010233  0.74012280  1
  Pt  Pt981  1  0.54002047  0.70010233  0.74012280  1
  Pt  Pt982  1  0.70010233  0.74012280  0.45997953  1
  Pt  Pt983  1  0.29989767  0.25987720  0.45997953  1
  Pt  Pt984  1  0.45997953  0.74012280  0.70010233  1
  Pt  Pt985  1  0.25987720  0.29989767  0.54002047  1
  Pt  Pt986  1  0.74012280  0.54002047  0.29989767  1
  Pt  Pt987  1  0.54002047  0.25987720  0.29989767  1
  Pt  Pt988  1  0.29989767  0.45997953  0.74012280  1
  Pt  Pt989  1  0.25987720  0.29989767  0.45997953  1
  Pt  Pt990  1  0.29989767  0.25987720  0.54002047  1
  Pt  Pt991  1  0.25987720  0.45997953  0.70010233  1
  Pt  Pt992  1  0.54002047  0.74012280  0.70010233  1
  Pt  Pt993  1  0.74012280  0.29989767  0.54002047  1
  Pt  Pt994  1  0.74012280  0.45997953  0.70010233  1
  Pt  Pt995  1  0.70010233  0.25987720  0.45997953  1
  Pt  Pt996  1  0.70010233  0.54002047  0.74012280  1
  Pt  Pt997  1  0.74012280  0.70010233  0.45997953  1
  Pt  Pt998  1  0.45997953  0.29989767  0.74012280  1
  Pt  Pt999  1  0.70010233  0.74012280  0.54002047  1
  Pt  Pt1000  1  0.54002047  0.29989767  0.74012280  1
  Pt  Pt1001  1  0.70010233  0.25987720  0.54002047  1
  Pt  Pt1002  1  0.45997953  0.25987720  0.70010233  1
  Pt  Pt1003  1  0.70010233  0.45997953  0.74012280  1
  Pt  Pt1004  1  0.74012280  0.70010233  0.54002047  1
  Pt  Pt1005  1  0.54002047  0.25987720  0.70010233  1
  Pt  Pt1006  1  0.74012280  0.54002047  0.70010233  1
  Pt  Pt1007  1  0.41995907  0.62006140  0.21985673  1
  Pt  Pt1008  1  0.37993860  0.58004093  0.21985673  1
  Pt  Pt1009  1  0.21985673  0.62006140  0.41995907  1
  Pt  Pt1010  1  0.58004093  0.62006140  0.21985673  1
  Pt  Pt1011  1  0.21985673  0.58004093  0.37993860  1
  Pt  Pt1012  1  0.21985673  0.62006140  0.58004093  1
  Pt  Pt1013  1  0.41995907  0.78014327  0.37993860  1
  Pt  Pt1014  1  0.62006140  0.58004093  0.21985673  1
  Pt  Pt1015  1  0.37993860  0.41995907  0.21985673  1
  Pt  Pt1016  1  0.37993860  0.78014327  0.41995907  1
  Pt  Pt1017  1  0.58004093  0.37993860  0.21985673  1
  Pt  Pt1018  1  0.21985673  0.41995907  0.37993860  1
  Pt  Pt1019  1  0.41995907  0.37993860  0.21985673  1
  Pt  Pt1020  1  0.62006140  0.41995907  0.21985673  1
  Pt  Pt1021  1  0.21985673  0.41995907  0.62006140  1
  Pt  Pt1022  1  0.58004093  0.78014327  0.37993860  1
  Pt  Pt1023  1  0.21985673  0.37993860  0.41995907  1
  Pt  Pt1024  1  0.37993860  0.78014327  0.58004093  1
  Pt  Pt1025  1  0.21985673  0.58004093  0.62006140  1
  Pt  Pt1026  1  0.21985673  0.37993860  0.58004093  1
  Pt  Pt1027  1  0.58004093  0.21985673  0.37993860  1
  Pt  Pt1028  1  0.78014327  0.41995907  0.37993860  1
  Pt  Pt1029  1  0.41995907  0.78014327  0.62006140  1
  Pt  Pt1030  1  0.62006140  0.78014327  0.41995907  1
  Pt  Pt1031  1  0.62006140  0.21985673  0.41995907  1
  Pt  Pt1032  1  0.41995907  0.21985673  0.37993860  1
  Pt  Pt1033  1  0.78014327  0.37993860  0.41995907  1
  Pt  Pt1034  1  0.58004093  0.62006140  0.78014327  1
  Pt  Pt1035  1  0.62006140  0.78014327  0.58004093  1
  Pt  Pt1036  1  0.37993860  0.58004093  0.78014327  1
  Pt  Pt1037  1  0.41995907  0.21985673  0.62006140  1
  Pt  Pt1038  1  0.37993860  0.21985673  0.58004093  1
  Pt  Pt1039  1  0.41995907  0.62006140  0.78014327  1
  Pt  Pt1040  1  0.58004093  0.78014327  0.62006140  1
  Pt  Pt1041  1  0.37993860  0.41995907  0.78014327  1
  Pt  Pt1042  1  0.37993860  0.21985673  0.41995907  1
  Pt  Pt1043  1  0.41995907  0.37993860  0.78014327  1
  Pt  Pt1044  1  0.62006140  0.58004093  0.78014327  1
  Pt  Pt1045  1  0.78014327  0.37993860  0.58004093  1
  Pt  Pt1046  1  0.78014327  0.41995907  0.62006140  1
  Pt  Pt1047  1  0.62006140  0.21985673  0.58004093  1
  Pt  Pt1048  1  0.78014327  0.62006140  0.41995907  1
  Pt  Pt1049  1  0.58004093  0.21985673  0.62006140  1
  Pt  Pt1050  1  0.78014327  0.58004093  0.37993860  1
  Pt  Pt1051  1  0.62006140  0.41995907  0.78014327  1
  Pt  Pt1052  1  0.58004093  0.37993860  0.78014327  1
  Pt  Pt1053  1  0.78014327  0.62006140  0.58004093  1
  Pt  Pt1054  1  0.78014327  0.58004093  0.62006140  1
  Pt  Pt1055  1  0.50000000  0.50000000  0.17983627  1
  Pt  Pt1056  1  0.50000000  0.82016373  0.50000000  1
  Pt  Pt1057  1  0.17983627  0.50000000  0.50000000  1
  Pt  Pt1058  1  0.50000000  0.17983627  0.50000000  1
  Pt  Pt1059  1  0.50000000  0.50000000  0.82016373  1
  Pt  Pt1060  1  0.82016373  0.50000000  0.50000000  1
  Pt  Pt1061  1  0.29989767  0.70010233  0.33991813  1
  Pt  Pt1062  1  0.29989767  0.66008187  0.29989767  1
  Pt  Pt1063  1  0.33991813  0.70010233  0.29989767  1
  Pt  Pt1064  1  0.54002047  0.54002047  0.17983627  1
  Pt  Pt1065  1  0.45997953  0.54002047  0.17983627  1
  Pt  Pt1066  1  0.66008187  0.70010233  0.29989767  1
  Pt  Pt1067  1  0.45997953  0.45997953  0.17983627  1
  Pt  Pt1068  1  0.45997953  0.82016373  0.45997953  1
  Pt  Pt1069  1  0.70010233  0.66008187  0.29989767  1
  Pt  Pt1070  1  0.17983627  0.54002047  0.45997953  1
  Pt  Pt1071  1  0.54002047  0.45997953  0.17983627  1
  Pt  Pt1072  1  0.17983627  0.45997953  0.45997953  1
  Pt  Pt1073  1  0.70010233  0.70010233  0.33991813  1
  Pt  Pt1074  1  0.45997953  0.82016373  0.54002047  1
  Pt  Pt1075  1  0.17983627  0.54002047  0.54002047  1
  Pt  Pt1076  1  0.17983627  0.45997953  0.54002047  1
  Pt  Pt1077  1  0.33991813  0.29989767  0.29989767  1
  Pt  Pt1078  1  0.54002047  0.82016373  0.45997953  1
  Pt  Pt1079  1  0.29989767  0.70010233  0.66008187  1
  Pt  Pt1080  1  0.29989767  0.66008187  0.70010233  1
  Pt  Pt1081  1  0.29989767  0.33991813  0.29989767  1
  Pt  Pt1082  1  0.29989767  0.29989767  0.33991813  1
  Pt  Pt1083  1  0.54002047  0.82016373  0.54002047  1
  Pt  Pt1084  1  0.82016373  0.45997953  0.45997953  1
  Pt  Pt1085  1  0.66008187  0.29989767  0.29989767  1
  Pt  Pt1086  1  0.70010233  0.33991813  0.29989767  1
  Pt  Pt1087  1  0.33991813  0.70010233  0.70010233  1
  Pt  Pt1088  1  0.29989767  0.29989767  0.66008187  1
  Pt  Pt1089  1  0.45997953  0.54002047  0.82016373  1
  Pt  Pt1090  1  0.82016373  0.45997953  0.54002047  1
  Pt  Pt1091  1  0.70010233  0.70010233  0.66008187  1
  Pt  Pt1092  1  0.70010233  0.29989767  0.33991813  1
  Pt  Pt1093  1  0.29989767  0.33991813  0.70010233  1
  Pt  Pt1094  1  0.66008187  0.70010233  0.70010233  1
  Pt  Pt1095  1  0.33991813  0.29989767  0.70010233  1
  Pt  Pt1096  1  0.45997953  0.45997953  0.82016373  1
  Pt  Pt1097  1  0.54002047  0.54002047  0.82016373  1
  Pt  Pt1098  1  0.45997953  0.17983627  0.45997953  1
  Pt  Pt1099  1  0.70010233  0.66008187  0.70010233  1
  Pt  Pt1100  1  0.45997953  0.17983627  0.54002047  1
  Pt  Pt1101  1  0.54002047  0.17983627  0.45997953  1
  Pt  Pt1102  1  0.54002047  0.45997953  0.82016373  1
  Pt  Pt1103  1  0.54002047  0.17983627  0.54002047  1
  Pt  Pt1104  1  0.82016373  0.54002047  0.45997953  1
  Pt  Pt1105  1  0.66008187  0.29989767  0.70010233  1
  Pt  Pt1106  1  0.70010233  0.29989767  0.66008187  1
  Pt  Pt1107  1  0.82016373  0.54002047  0.54002047  1
  Pt  Pt1108  1  0.70010233  0.33991813  0.70010233  1
  Pt  Pt1109  1  0.45997953  0.66008187  0.21985673  1
  Pt  Pt1110  1  0.54002047  0.66008187  0.21985673  1
  Pt  Pt1111  1  0.21985673  0.66008187  0.45997953  1
  Pt  Pt1112  1  0.33991813  0.45997953  0.21985673  1
  Pt  Pt1113  1  0.33991813  0.54002047  0.21985673  1
  Pt  Pt1114  1  0.21985673  0.54002047  0.33991813  1
  Pt  Pt1115  1  0.21985673  0.66008187  0.54002047  1
  Pt  Pt1116  1  0.66008187  0.54002047  0.21985673  1
  Pt  Pt1117  1  0.21985673  0.45997953  0.33991813  1
  Pt  Pt1118  1  0.45997953  0.78014327  0.33991813  1
  Pt  Pt1119  1  0.66008187  0.45997953  0.21985673  1
  Pt  Pt1120  1  0.54002047  0.78014327  0.33991813  1
  Pt  Pt1121  1  0.33991813  0.78014327  0.45997953  1
  Pt  Pt1122  1  0.45997953  0.33991813  0.21985673  1
  Pt  Pt1123  1  0.54002047  0.33991813  0.21985673  1
  Pt  Pt1124  1  0.78014327  0.45997953  0.33991813  1
  Pt  Pt1125  1  0.21985673  0.54002047  0.66008187  1
  Pt  Pt1126  1  0.33991813  0.78014327  0.54002047  1
  Pt  Pt1127  1  0.21985673  0.45997953  0.66008187  1
  Pt  Pt1128  1  0.66008187  0.21985673  0.45997953  1
  Pt  Pt1129  1  0.45997953  0.78014327  0.66008187  1
  Pt  Pt1130  1  0.66008187  0.78014327  0.45997953  1
  Pt  Pt1131  1  0.21985673  0.33991813  0.45997953  1
  Pt  Pt1132  1  0.54002047  0.21985673  0.33991813  1
  Pt  Pt1133  1  0.45997953  0.21985673  0.33991813  1
  Pt  Pt1134  1  0.21985673  0.33991813  0.54002047  1
  Pt  Pt1135  1  0.45997953  0.66008187  0.78014327  1
  Pt  Pt1136  1  0.66008187  0.21985673  0.54002047  1
  Pt  Pt1137  1  0.33991813  0.21985673  0.54002047  1
  Pt  Pt1138  1  0.33991813  0.21985673  0.45997953  1
  Pt  Pt1139  1  0.66008187  0.78014327  0.54002047  1
  Pt  Pt1140  1  0.54002047  0.66008187  0.78014327  1
  Pt  Pt1141  1  0.33991813  0.54002047  0.78014327  1
  Pt  Pt1142  1  0.54002047  0.78014327  0.66008187  1
  Pt  Pt1143  1  0.78014327  0.66008187  0.45997953  1
  Pt  Pt1144  1  0.33991813  0.45997953  0.78014327  1
  Pt  Pt1145  1  0.45997953  0.21985673  0.66008187  1
  Pt  Pt1146  1  0.78014327  0.45997953  0.66008187  1
  Pt  Pt1147  1  0.78014327  0.54002047  0.33991813  1
  Pt  Pt1148  1  0.54002047  0.21985673  0.66008187  1
  Pt  Pt1149  1  0.78014327  0.33991813  0.45997953  1
  Pt  Pt1150  1  0.66008187  0.54002047  0.78014327  1
  Pt  Pt1151  1  0.78014327  0.66008187  0.54002047  1
  Pt  Pt1152  1  0.66008187  0.45997953  0.78014327  1
  Pt  Pt1153  1  0.78014327  0.33991813  0.54002047  1
  Pt  Pt1154  1  0.54002047  0.33991813  0.78014327  1
  Pt  Pt1155  1  0.45997953  0.33991813  0.78014327  1
  Pt  Pt1156  1  0.78014327  0.54002047  0.66008187  1
  Pt  Pt1157  1  0.41995907  0.50000000  0.17983627  1
  Pt  Pt1158  1  0.58004093  0.50000000  0.17983627  1
  Pt  Pt1159  1  0.50000000  0.58004093  0.17983627  1
  Pt  Pt1160  1  0.50000000  0.82016373  0.41995907  1
  Pt  Pt1161  1  0.50000000  0.41995907  0.17983627  1
  Pt  Pt1162  1  0.41995907  0.82016373  0.50000000  1
  Pt  Pt1163  1  0.17983627  0.50000000  0.41995907  1
  Pt  Pt1164  1  0.17983627  0.58004093  0.50000000  1
  Pt  Pt1165  1  0.17983627  0.41995907  0.50000000  1
  Pt  Pt1166  1  0.17983627  0.50000000  0.58004093  1
  Pt  Pt1167  1  0.50000000  0.82016373  0.58004093  1
  Pt  Pt1168  1  0.58004093  0.82016373  0.50000000  1
  Pt  Pt1169  1  0.50000000  0.17983627  0.41995907  1
  Pt  Pt1170  1  0.82016373  0.41995907  0.50000000  1
  Pt  Pt1171  1  0.58004093  0.17983627  0.50000000  1
  Pt  Pt1172  1  0.41995907  0.17983627  0.50000000  1
  Pt  Pt1173  1  0.41995907  0.50000000  0.82016373  1
  Pt  Pt1174  1  0.50000000  0.58004093  0.82016373  1
  Pt  Pt1175  1  0.50000000  0.17983627  0.58004093  1
  Pt  Pt1176  1  0.50000000  0.41995907  0.82016373  1
  Pt  Pt1177  1  0.58004093  0.50000000  0.82016373  1
  Pt  Pt1178  1  0.82016373  0.50000000  0.41995907  1
  Pt  Pt1179  1  0.82016373  0.58004093  0.50000000  1
  Pt  Pt1180  1  0.82016373  0.50000000  0.58004093  1
  Pt  Pt1181  1  0.25987720  0.66008187  0.33991813  1
  Pt  Pt1182  1  0.33991813  0.66008187  0.25987720  1
  Pt  Pt1183  1  0.66008187  0.66008187  0.25987720  1
  Pt  Pt1184  1  0.33991813  0.74012280  0.33991813  1
  Pt  Pt1185  1  0.25987720  0.66008187  0.66008187  1
  Pt  Pt1186  1  0.66008187  0.74012280  0.33991813  1
  Pt  Pt1187  1  0.33991813  0.74012280  0.66008187  1
  Pt  Pt1188  1  0.66008187  0.33991813  0.25987720  1
  Pt  Pt1189  1  0.33991813  0.66008187  0.74012280  1
  Pt  Pt1190  1  0.33991813  0.33991813  0.25987720  1
  Pt  Pt1191  1  0.25987720  0.33991813  0.33991813  1
  Pt  Pt1192  1  0.74012280  0.66008187  0.33991813  1
  Pt  Pt1193  1  0.74012280  0.33991813  0.33991813  1
  Pt  Pt1194  1  0.33991813  0.25987720  0.33991813  1
  Pt  Pt1195  1  0.66008187  0.74012280  0.66008187  1
  Pt  Pt1196  1  0.25987720  0.33991813  0.66008187  1
  Pt  Pt1197  1  0.66008187  0.25987720  0.33991813  1
  Pt  Pt1198  1  0.74012280  0.33991813  0.66008187  1
  Pt  Pt1199  1  0.33991813  0.33991813  0.74012280  1
  Pt  Pt1200  1  0.33991813  0.25987720  0.66008187  1
  Pt  Pt1201  1  0.74012280  0.66008187  0.66008187  1
  Pt  Pt1202  1  0.66008187  0.33991813  0.74012280  1
  Pt  Pt1203  1  0.66008187  0.66008187  0.74012280  1
  Pt  Pt1204  1  0.66008187  0.25987720  0.66008187  1
