data_con1.21_2nm_full_ontop
_audit_creation_date              2024-06-10
_audit_creation_method            'Materials Studio'
_symmetry_space_group_name_H-M    'P1'
_symmetry_Int_Tables_number       1
_symmetry_cell_setting            triclinic
loop_
_symmetry_equiv_pos_as_xyz
  x,y,z
_cell_length_a                    60.0000
_cell_length_b                    60.0000
_cell_length_c                    60.0000
_cell_angle_alpha                 90.0000
_cell_angle_beta                  90.0000
_cell_angle_gamma                 90.0000
loop_
_atom_site_label
_atom_site_type_symbol
_atom_site_fract_x
_atom_site_fract_y
_atom_site_fract_z
_atom_site_U_iso_or_equiv
_atom_site_adp_type
_atom_site_occupancy
Pt1    Pt    0.50000   0.50000   0.50000   0.00000  Uiso   1.00
Pt2    Pt    0.46684   0.46684   0.50000   0.00000  Uiso   1.00
Pt3    Pt    0.46684   0.53316   0.50000   0.00000  Uiso   1.00
Pt4    Pt    0.53316   0.46684   0.50000   0.00000  Uiso   1.00
Pt5    Pt    0.53316   0.53316   0.50000   0.00000  Uiso   1.00
Pt6    Pt    0.46684   0.50000   0.53383   0.00000  Uiso   1.00
Pt7    Pt    0.50000   0.46684   0.53383   0.00000  Uiso   1.00
Pt8    Pt    0.50000   0.53316   0.53383   0.00000  Uiso   1.00
Pt9    Pt    0.53316   0.50000   0.53383   0.00000  Uiso   1.00
Pt10   Pt    0.46684   0.50000   0.46617   0.00000  Uiso   1.00
Pt11   Pt    0.50000   0.46684   0.46617   0.00000  Uiso   1.00
Pt12   Pt    0.50000   0.53316   0.46617   0.00000  Uiso   1.00
Pt13   Pt    0.53316   0.50000   0.46617   0.00000  Uiso   1.00
Pt14   Pt    0.50000   0.56633   0.50000   0.00000  Uiso   1.00
Pt15   Pt    0.56633   0.50000   0.50000   0.00000  Uiso   1.00
Pt16   Pt    0.43367   0.50000   0.50000   0.00000  Uiso   1.00
Pt17   Pt    0.50000   0.43367   0.50000   0.00000  Uiso   1.00
Pt18   Pt    0.50000   0.50000   0.56672   0.00000  Uiso   1.00
Pt19   Pt    0.50000   0.50000   0.43328   0.00000  Uiso   1.00
Pt20   Pt    0.46684   0.56633   0.53383   0.00000  Uiso   1.00
Pt21   Pt    0.56633   0.46684   0.53383   0.00000  Uiso   1.00
Pt22   Pt    0.53316   0.56633   0.53383   0.00000  Uiso   1.00
Pt23   Pt    0.56633   0.53316   0.53383   0.00000  Uiso   1.00
Pt24   Pt    0.46684   0.56633   0.46617   0.00000  Uiso   1.00
Pt25   Pt    0.56633   0.46684   0.46617   0.00000  Uiso   1.00
Pt26   Pt    0.53316   0.56633   0.46617   0.00000  Uiso   1.00
Pt27   Pt    0.56633   0.53316   0.46617   0.00000  Uiso   1.00
Pt28   Pt    0.43367   0.46684   0.53383   0.00000  Uiso   1.00
Pt29   Pt    0.46684   0.43367   0.53383   0.00000  Uiso   1.00
Pt30   Pt    0.43367   0.53316   0.53383   0.00000  Uiso   1.00
Pt31   Pt    0.53316   0.43367   0.53383   0.00000  Uiso   1.00
Pt32   Pt    0.43367   0.46684   0.46617   0.00000  Uiso   1.00
Pt33   Pt    0.46684   0.43367   0.46617   0.00000  Uiso   1.00
Pt34   Pt    0.43367   0.53316   0.46617   0.00000  Uiso   1.00
Pt35   Pt    0.53316   0.43367   0.46617   0.00000  Uiso   1.00
Pt36   Pt    0.46684   0.46684   0.56672   0.00000  Uiso   1.00
Pt37   Pt    0.46684   0.46684   0.43328   0.00000  Uiso   1.00
Pt38   Pt    0.46684   0.53316   0.56672   0.00000  Uiso   1.00
Pt39   Pt    0.53316   0.46684   0.56672   0.00000  Uiso   1.00
Pt40   Pt    0.46684   0.53316   0.43328   0.00000  Uiso   1.00
Pt41   Pt    0.53316   0.46684   0.43328   0.00000  Uiso   1.00
Pt42   Pt    0.53316   0.53316   0.56672   0.00000  Uiso   1.00
Pt43   Pt    0.53316   0.53316   0.43328   0.00000  Uiso   1.00
Pt44   Pt    0.56633   0.56633   0.50000   0.00000  Uiso   1.00
Pt45   Pt    0.43367   0.56633   0.50000   0.00000  Uiso   1.00
Pt46   Pt    0.56633   0.43367   0.50000   0.00000  Uiso   1.00
Pt47   Pt    0.43367   0.43367   0.50000   0.00000  Uiso   1.00
Pt48   Pt    0.50000   0.56633   0.56672   0.00000  Uiso   1.00
Pt49   Pt    0.56633   0.50000   0.56672   0.00000  Uiso   1.00
Pt50   Pt    0.50000   0.56633   0.43328   0.00000  Uiso   1.00
Pt51   Pt    0.56633   0.50000   0.43328   0.00000  Uiso   1.00
Pt52   Pt    0.43367   0.50000   0.56672   0.00000  Uiso   1.00
Pt53   Pt    0.50000   0.43367   0.56672   0.00000  Uiso   1.00
Pt54   Pt    0.43367   0.50000   0.43328   0.00000  Uiso   1.00
Pt55   Pt    0.50000   0.43367   0.43328   0.00000  Uiso   1.00
Pt56   Pt    0.40051   0.46684   0.50000   0.00000  Uiso   1.00
Pt57   Pt    0.46684   0.40051   0.50000   0.00000  Uiso   1.00
Pt58   Pt    0.40051   0.53316   0.50000   0.00000  Uiso   1.00
Pt59   Pt    0.53316   0.40051   0.50000   0.00000  Uiso   1.00
Pt60   Pt    0.46684   0.59949   0.50000   0.00000  Uiso   1.00
Pt61   Pt    0.59949   0.46684   0.50000   0.00000  Uiso   1.00
Pt62   Pt    0.53316   0.59949   0.50000   0.00000  Uiso   1.00
Pt63   Pt    0.59949   0.53316   0.50000   0.00000  Uiso   1.00
Pt64   Pt    0.46684   0.50000   0.59960   0.00000  Uiso   1.00
Pt65   Pt    0.50000   0.46684   0.59960   0.00000  Uiso   1.00
Pt66   Pt    0.46684   0.50000   0.40040   0.00000  Uiso   1.00
Pt67   Pt    0.50000   0.46684   0.40040   0.00000  Uiso   1.00
Pt68   Pt    0.50000   0.53316   0.59960   0.00000  Uiso   1.00
Pt69   Pt    0.53316   0.50000   0.59960   0.00000  Uiso   1.00
Pt70   Pt    0.50000   0.53316   0.40040   0.00000  Uiso   1.00
Pt71   Pt    0.53316   0.50000   0.40040   0.00000  Uiso   1.00
Pt72   Pt    0.40051   0.50000   0.53383   0.00000  Uiso   1.00
Pt73   Pt    0.50000   0.40051   0.53383   0.00000  Uiso   1.00
Pt74   Pt    0.40051   0.50000   0.46617   0.00000  Uiso   1.00
Pt75   Pt    0.50000   0.40051   0.46617   0.00000  Uiso   1.00
Pt76   Pt    0.50000   0.59949   0.53383   0.00000  Uiso   1.00
Pt77   Pt    0.59949   0.50000   0.53383   0.00000  Uiso   1.00
Pt78   Pt    0.50000   0.59949   0.46617   0.00000  Uiso   1.00
Pt79   Pt    0.59949   0.50000   0.46617   0.00000  Uiso   1.00
Pt80   Pt    0.56633   0.56633   0.56672   0.00000  Uiso   1.00
Pt81   Pt    0.56633   0.56633   0.43328   0.00000  Uiso   1.00
Pt82   Pt    0.43367   0.56633   0.56672   0.00000  Uiso   1.00
Pt83   Pt    0.56633   0.43367   0.56672   0.00000  Uiso   1.00
Pt84   Pt    0.43367   0.56633   0.43328   0.00000  Uiso   1.00
Pt85   Pt    0.56633   0.43367   0.43328   0.00000  Uiso   1.00
Pt86   Pt    0.43367   0.43367   0.56672   0.00000  Uiso   1.00
Pt87   Pt    0.43367   0.43367   0.43328   0.00000  Uiso   1.00
Pt88   Pt    0.46684   0.56633   0.59960   0.00000  Uiso   1.00
Pt89   Pt    0.56633   0.46684   0.59960   0.00000  Uiso   1.00
Pt90   Pt    0.46684   0.56633   0.40040   0.00000  Uiso   1.00
Pt91   Pt    0.56633   0.46684   0.40040   0.00000  Uiso   1.00
Pt92   Pt    0.53316   0.56633   0.59960   0.00000  Uiso   1.00
Pt93   Pt    0.56633   0.53316   0.59960   0.00000  Uiso   1.00
Pt94   Pt    0.53316   0.56633   0.40040   0.00000  Uiso   1.00
Pt95   Pt    0.56633   0.53316   0.40040   0.00000  Uiso   1.00
Pt96   Pt    0.43367   0.46684   0.59960   0.00000  Uiso   1.00
Pt97   Pt    0.46684   0.43367   0.59960   0.00000  Uiso   1.00
Pt98   Pt    0.43367   0.46684   0.40040   0.00000  Uiso   1.00
Pt99   Pt    0.46684   0.43367   0.40040   0.00000  Uiso   1.00
Pt100  Pt    0.43367   0.53316   0.59960   0.00000  Uiso   1.00
Pt101  Pt    0.53316   0.43367   0.59960   0.00000  Uiso   1.00
Pt102  Pt    0.43367   0.53316   0.40040   0.00000  Uiso   1.00
Pt103  Pt    0.53316   0.43367   0.40040   0.00000  Uiso   1.00
Pt104  Pt    0.40051   0.56633   0.53383   0.00000  Uiso   1.00
Pt105  Pt    0.56633   0.40051   0.53383   0.00000  Uiso   1.00
Pt106  Pt    0.40051   0.56633   0.46617   0.00000  Uiso   1.00
Pt107  Pt    0.56633   0.40051   0.46617   0.00000  Uiso   1.00
Pt108  Pt    0.40051   0.43367   0.53383   0.00000  Uiso   1.00
Pt109  Pt    0.43367   0.40051   0.53383   0.00000  Uiso   1.00
Pt110  Pt    0.56633   0.59949   0.53383   0.00000  Uiso   1.00
Pt111  Pt    0.59949   0.56633   0.53383   0.00000  Uiso   1.00
Pt112  Pt    0.40051   0.43367   0.46617   0.00000  Uiso   1.00
Pt113  Pt    0.43367   0.40051   0.46617   0.00000  Uiso   1.00
Pt114  Pt    0.56633   0.59949   0.46617   0.00000  Uiso   1.00
Pt115  Pt    0.59949   0.56633   0.46617   0.00000  Uiso   1.00
Pt116  Pt    0.43367   0.59949   0.53383   0.00000  Uiso   1.00
Pt117  Pt    0.59949   0.43367   0.53383   0.00000  Uiso   1.00
Pt118  Pt    0.43367   0.59949   0.46617   0.00000  Uiso   1.00
Pt119  Pt    0.59949   0.43367   0.46617   0.00000  Uiso   1.00
Pt120  Pt    0.40051   0.46684   0.56672   0.00000  Uiso   1.00
Pt121  Pt    0.46684   0.40051   0.56672   0.00000  Uiso   1.00
Pt122  Pt    0.40051   0.46684   0.43328   0.00000  Uiso   1.00
Pt123  Pt    0.46684   0.40051   0.43328   0.00000  Uiso   1.00
Pt124  Pt    0.40051   0.53316   0.56672   0.00000  Uiso   1.00
Pt125  Pt    0.53316   0.40051   0.56672   0.00000  Uiso   1.00
Pt126  Pt    0.40051   0.53316   0.43328   0.00000  Uiso   1.00
Pt127  Pt    0.53316   0.40051   0.43328   0.00000  Uiso   1.00
Pt128  Pt    0.46684   0.59949   0.56672   0.00000  Uiso   1.00
Pt129  Pt    0.59949   0.46684   0.56672   0.00000  Uiso   1.00
Pt130  Pt    0.46684   0.59949   0.43328   0.00000  Uiso   1.00
Pt131  Pt    0.59949   0.46684   0.43328   0.00000  Uiso   1.00
Pt132  Pt    0.53316   0.59949   0.56672   0.00000  Uiso   1.00
Pt133  Pt    0.59949   0.53316   0.56672   0.00000  Uiso   1.00
Pt134  Pt    0.53316   0.59949   0.43328   0.00000  Uiso   1.00
Pt135  Pt    0.59949   0.53316   0.43328   0.00000  Uiso   1.00
Pt136  Pt    0.50000   0.63265   0.50000   0.00000  Uiso   1.00
Pt137  Pt    0.63265   0.50000   0.50000   0.00000  Uiso   1.00
Pt138  Pt    0.36735   0.50000   0.50000   0.00000  Uiso   1.00
Pt139  Pt    0.50000   0.36735   0.50000   0.00000  Uiso   1.00
Pt140  Pt    0.50000   0.50000   0.36657   0.00000  Uiso   1.00
Pt141  Pt    0.50000   0.50000   0.63343   0.00000  Uiso   1.00
Pt142  Pt    0.40051   0.40051   0.50000   0.00000  Uiso   1.00
Pt143  Pt    0.40051   0.59949   0.50000   0.00000  Uiso   1.00
Pt144  Pt    0.59949   0.40051   0.50000   0.00000  Uiso   1.00
Pt145  Pt    0.59949   0.59949   0.50000   0.00000  Uiso   1.00
Pt146  Pt    0.40051   0.50000   0.59960   0.00000  Uiso   1.00
Pt147  Pt    0.50000   0.40051   0.59960   0.00000  Uiso   1.00
Pt148  Pt    0.40051   0.50000   0.40040   0.00000  Uiso   1.00
Pt149  Pt    0.50000   0.40051   0.40040   0.00000  Uiso   1.00
Pt150  Pt    0.50000   0.59949   0.59960   0.00000  Uiso   1.00
Pt151  Pt    0.59949   0.50000   0.59960   0.00000  Uiso   1.00
Pt152  Pt    0.50000   0.59949   0.40040   0.00000  Uiso   1.00
Pt153  Pt    0.59949   0.50000   0.40040   0.00000  Uiso   1.00
Pt154  Pt    0.46684   0.63265   0.53383   0.00000  Uiso   1.00
Pt155  Pt    0.63265   0.46684   0.53383   0.00000  Uiso   1.00
Pt156  Pt    0.53316   0.63265   0.53383   0.00000  Uiso   1.00
Pt157  Pt    0.63265   0.53316   0.53383   0.00000  Uiso   1.00
Pt158  Pt    0.46684   0.63265   0.46617   0.00000  Uiso   1.00
Pt159  Pt    0.63265   0.46684   0.46617   0.00000  Uiso   1.00
Pt160  Pt    0.53316   0.63265   0.46617   0.00000  Uiso   1.00
Pt161  Pt    0.63265   0.53316   0.46617   0.00000  Uiso   1.00
Pt162  Pt    0.36735   0.46684   0.53383   0.00000  Uiso   1.00
Pt163  Pt    0.46684   0.36735   0.53383   0.00000  Uiso   1.00
Pt164  Pt    0.36735   0.53316   0.53383   0.00000  Uiso   1.00
Pt165  Pt    0.53316   0.36735   0.53383   0.00000  Uiso   1.00
Pt166  Pt    0.36735   0.46684   0.46617   0.00000  Uiso   1.00
Pt167  Pt    0.46684   0.36735   0.46617   0.00000  Uiso   1.00
Pt168  Pt    0.36735   0.53316   0.46617   0.00000  Uiso   1.00
Pt169  Pt    0.53316   0.36735   0.46617   0.00000  Uiso   1.00
Pt170  Pt    0.46684   0.46684   0.36657   0.00000  Uiso   1.00
Pt171  Pt    0.46684   0.53316   0.36657   0.00000  Uiso   1.00
Pt172  Pt    0.53316   0.46684   0.36657   0.00000  Uiso   1.00
Pt173  Pt    0.53316   0.53316   0.36657   0.00000  Uiso   1.00
Pt174  Pt    0.46684   0.46684   0.63343   0.00000  Uiso   1.00
Pt175  Pt    0.46684   0.53316   0.63343   0.00000  Uiso   1.00
Pt176  Pt    0.53316   0.46684   0.63343   0.00000  Uiso   1.00
Pt177  Pt    0.53316   0.53316   0.63343   0.00000  Uiso   1.00
Pt178  Pt    0.56633   0.63265   0.50000   0.00000  Uiso   1.00
Pt179  Pt    0.63265   0.56633   0.50000   0.00000  Uiso   1.00
Pt180  Pt    0.43367   0.63265   0.50000   0.00000  Uiso   1.00
Pt181  Pt    0.63265   0.43367   0.50000   0.00000  Uiso   1.00
Pt182  Pt    0.36735   0.56633   0.50000   0.00000  Uiso   1.00
Pt183  Pt    0.56633   0.36735   0.50000   0.00000  Uiso   1.00
Pt184  Pt    0.36735   0.43367   0.50000   0.00000  Uiso   1.00
Pt185  Pt    0.43367   0.36735   0.50000   0.00000  Uiso   1.00
Pt186  Pt    0.50000   0.63265   0.56672   0.00000  Uiso   1.00
Pt187  Pt    0.63265   0.50000   0.56672   0.00000  Uiso   1.00
Pt188  Pt    0.50000   0.63265   0.43328   0.00000  Uiso   1.00
Pt189  Pt    0.63265   0.50000   0.43328   0.00000  Uiso   1.00
Pt190  Pt    0.36735   0.50000   0.56672   0.00000  Uiso   1.00
Pt191  Pt    0.50000   0.36735   0.56672   0.00000  Uiso   1.00
Pt192  Pt    0.36735   0.50000   0.43328   0.00000  Uiso   1.00
Pt193  Pt    0.50000   0.36735   0.43328   0.00000  Uiso   1.00
Pt194  Pt    0.50000   0.56633   0.36657   0.00000  Uiso   1.00
Pt195  Pt    0.56633   0.50000   0.36657   0.00000  Uiso   1.00
Pt196  Pt    0.43367   0.50000   0.36657   0.00000  Uiso   1.00
Pt197  Pt    0.50000   0.43367   0.36657   0.00000  Uiso   1.00
Pt198  Pt    0.50000   0.56633   0.63343   0.00000  Uiso   1.00
Pt199  Pt    0.56633   0.50000   0.63343   0.00000  Uiso   1.00
Pt200  Pt    0.43367   0.50000   0.63343   0.00000  Uiso   1.00
Pt201  Pt    0.50000   0.43367   0.63343   0.00000  Uiso   1.00
Pt202  Pt    0.40051   0.56633   0.59960   0.00000  Uiso   1.00
Pt203  Pt    0.56633   0.40051   0.59960   0.00000  Uiso   1.00
Pt204  Pt    0.40051   0.56633   0.40040   0.00000  Uiso   1.00
Pt205  Pt    0.56633   0.40051   0.40040   0.00000  Uiso   1.00
Pt206  Pt    0.43367   0.40051   0.59960   0.00000  Uiso   1.00
Pt207  Pt    0.40051   0.43367   0.59960   0.00000  Uiso   1.00
Pt208  Pt    0.56633   0.59949   0.59960   0.00000  Uiso   1.00
Pt209  Pt    0.59949   0.56633   0.59960   0.00000  Uiso   1.00
Pt210  Pt    0.40051   0.43367   0.40040   0.00000  Uiso   1.00
Pt211  Pt    0.43367   0.40051   0.40040   0.00000  Uiso   1.00
Pt212  Pt    0.56633   0.59949   0.40040   0.00000  Uiso   1.00
Pt213  Pt    0.59949   0.56633   0.40040   0.00000  Uiso   1.00
Pt214  Pt    0.43367   0.59949   0.59960   0.00000  Uiso   1.00
Pt215  Pt    0.59949   0.43367   0.59960   0.00000  Uiso   1.00
Pt216  Pt    0.43367   0.59949   0.40040   0.00000  Uiso   1.00
Pt217  Pt    0.59949   0.43367   0.40040   0.00000  Uiso   1.00
Pt218  Pt    0.40051   0.40051   0.56672   0.00000  Uiso   1.00
Pt219  Pt    0.40051   0.40051   0.43328   0.00000  Uiso   1.00
Pt220  Pt    0.40051   0.59949   0.56672   0.00000  Uiso   1.00
Pt221  Pt    0.59949   0.40051   0.56672   0.00000  Uiso   1.00
Pt222  Pt    0.40051   0.59949   0.43328   0.00000  Uiso   1.00
Pt223  Pt    0.59949   0.40051   0.43328   0.00000  Uiso   1.00
Pt224  Pt    0.59949   0.59949   0.56672   0.00000  Uiso   1.00
Pt225  Pt    0.59949   0.59949   0.43328   0.00000  Uiso   1.00
Pt226  Pt    0.56633   0.63265   0.56672   0.00000  Uiso   1.00
Pt227  Pt    0.63265   0.56633   0.56672   0.00000  Uiso   1.00
Pt228  Pt    0.56633   0.63265   0.43328   0.00000  Uiso   1.00
Pt229  Pt    0.63265   0.56633   0.43328   0.00000  Uiso   1.00
Pt230  Pt    0.43367   0.63265   0.56672   0.00000  Uiso   1.00
Pt231  Pt    0.63265   0.43367   0.56672   0.00000  Uiso   1.00
Pt232  Pt    0.43367   0.63265   0.43328   0.00000  Uiso   1.00
Pt233  Pt    0.63265   0.43367   0.43328   0.00000  Uiso   1.00
Pt234  Pt    0.36735   0.56633   0.56672   0.00000  Uiso   1.00
Pt235  Pt    0.56633   0.36735   0.56672   0.00000  Uiso   1.00
Pt236  Pt    0.36735   0.56633   0.43328   0.00000  Uiso   1.00
Pt237  Pt    0.56633   0.36735   0.43328   0.00000  Uiso   1.00
Pt238  Pt    0.36735   0.43367   0.56672   0.00000  Uiso   1.00
Pt239  Pt    0.43367   0.36735   0.56672   0.00000  Uiso   1.00
Pt240  Pt    0.36735   0.43367   0.43328   0.00000  Uiso   1.00
Pt241  Pt    0.43367   0.36735   0.43328   0.00000  Uiso   1.00
Pt242  Pt    0.56633   0.56633   0.36657   0.00000  Uiso   1.00
Pt243  Pt    0.43367   0.56633   0.36657   0.00000  Uiso   1.00
Pt244  Pt    0.56633   0.43367   0.36657   0.00000  Uiso   1.00
Pt245  Pt    0.56633   0.56633   0.63343   0.00000  Uiso   1.00
Pt246  Pt    0.43367   0.43367   0.36657   0.00000  Uiso   1.00
Pt247  Pt    0.43367   0.56633   0.63343   0.00000  Uiso   1.00
Pt248  Pt    0.56633   0.43367   0.63343   0.00000  Uiso   1.00
Pt249  Pt    0.43367   0.43367   0.63343   0.00000  Uiso   1.00
Pt250  Pt    0.33419   0.46684   0.50000   0.00000  Uiso   1.00
Pt251  Pt    0.46684   0.33419   0.50000   0.00000  Uiso   1.00
Pt252  Pt    0.33419   0.53316   0.50000   0.00000  Uiso   1.00
Pt253  Pt    0.53316   0.33419   0.50000   0.00000  Uiso   1.00
Pt254  Pt    0.46684   0.66581   0.50000   0.00000  Uiso   1.00
Pt255  Pt    0.66581   0.46684   0.50000   0.00000  Uiso   1.00
Pt256  Pt    0.53316   0.66581   0.50000   0.00000  Uiso   1.00
Pt257  Pt    0.66581   0.53316   0.50000   0.00000  Uiso   1.00
Pt258  Pt    0.46684   0.63265   0.59960   0.00000  Uiso   1.00
Pt259  Pt    0.63265   0.46684   0.59960   0.00000  Uiso   1.00
Pt260  Pt    0.46684   0.63265   0.40040   0.00000  Uiso   1.00
Pt261  Pt    0.63265   0.46684   0.40040   0.00000  Uiso   1.00
Pt262  Pt    0.53316   0.63265   0.59960   0.00000  Uiso   1.00
Pt263  Pt    0.63265   0.53316   0.59960   0.00000  Uiso   1.00
Pt264  Pt    0.53316   0.63265   0.40040   0.00000  Uiso   1.00
Pt265  Pt    0.63265   0.53316   0.40040   0.00000  Uiso   1.00
Pt266  Pt    0.36735   0.46684   0.59960   0.00000  Uiso   1.00
Pt267  Pt    0.46684   0.36735   0.59960   0.00000  Uiso   1.00
Pt268  Pt    0.36735   0.46684   0.40040   0.00000  Uiso   1.00
Pt269  Pt    0.46684   0.36735   0.40040   0.00000  Uiso   1.00
Pt270  Pt    0.36735   0.53316   0.59960   0.00000  Uiso   1.00
Pt271  Pt    0.53316   0.36735   0.59960   0.00000  Uiso   1.00
Pt272  Pt    0.36735   0.53316   0.40040   0.00000  Uiso   1.00
Pt273  Pt    0.53316   0.36735   0.40040   0.00000  Uiso   1.00
Pt274  Pt    0.40051   0.63265   0.53383   0.00000  Uiso   1.00
Pt275  Pt    0.63265   0.40051   0.53383   0.00000  Uiso   1.00
Pt276  Pt    0.33419   0.50000   0.53383   0.00000  Uiso   1.00
Pt277  Pt    0.50000   0.33419   0.53383   0.00000  Uiso   1.00
Pt278  Pt    0.40051   0.63265   0.46617   0.00000  Uiso   1.00
Pt279  Pt    0.63265   0.40051   0.46617   0.00000  Uiso   1.00
Pt280  Pt    0.33419   0.50000   0.46617   0.00000  Uiso   1.00
Pt281  Pt    0.50000   0.33419   0.46617   0.00000  Uiso   1.00
Pt282  Pt    0.59949   0.63265   0.53383   0.00000  Uiso   1.00
Pt283  Pt    0.63265   0.59949   0.53383   0.00000  Uiso   1.00
Pt284  Pt    0.59949   0.63265   0.46617   0.00000  Uiso   1.00
Pt285  Pt    0.63265   0.59949   0.46617   0.00000  Uiso   1.00
Pt286  Pt    0.50000   0.66581   0.53383   0.00000  Uiso   1.00
Pt287  Pt    0.66581   0.50000   0.53383   0.00000  Uiso   1.00
Pt288  Pt    0.40051   0.36735   0.53383   0.00000  Uiso   1.00
Pt289  Pt    0.36735   0.40051   0.53383   0.00000  Uiso   1.00
Pt290  Pt    0.50000   0.66581   0.46617   0.00000  Uiso   1.00
Pt291  Pt    0.66581   0.50000   0.46617   0.00000  Uiso   1.00
Pt292  Pt    0.40051   0.36735   0.46617   0.00000  Uiso   1.00
Pt293  Pt    0.36735   0.40051   0.46617   0.00000  Uiso   1.00
Pt294  Pt    0.36735   0.59949   0.53383   0.00000  Uiso   1.00
Pt295  Pt    0.59949   0.36735   0.53383   0.00000  Uiso   1.00
Pt296  Pt    0.36735   0.59949   0.46617   0.00000  Uiso   1.00
Pt297  Pt    0.59949   0.36735   0.46617   0.00000  Uiso   1.00
Pt298  Pt    0.40051   0.46684   0.36657   0.00000  Uiso   1.00
Pt299  Pt    0.46684   0.40051   0.36657   0.00000  Uiso   1.00
Pt300  Pt    0.40051   0.53316   0.36657   0.00000  Uiso   1.00
Pt301  Pt    0.53316   0.40051   0.36657   0.00000  Uiso   1.00
Pt302  Pt    0.46684   0.59949   0.36657   0.00000  Uiso   1.00
Pt303  Pt    0.59949   0.46684   0.36657   0.00000  Uiso   1.00
Pt304  Pt    0.53316   0.59949   0.36657   0.00000  Uiso   1.00
Pt305  Pt    0.59949   0.53316   0.36657   0.00000  Uiso   1.00
Pt306  Pt    0.40051   0.46684   0.63343   0.00000  Uiso   1.00
Pt307  Pt    0.46684   0.40051   0.63343   0.00000  Uiso   1.00
Pt308  Pt    0.40051   0.53316   0.63343   0.00000  Uiso   1.00
Pt309  Pt    0.53316   0.40051   0.63343   0.00000  Uiso   1.00
Pt310  Pt    0.46684   0.59949   0.63343   0.00000  Uiso   1.00
Pt311  Pt    0.59949   0.46684   0.63343   0.00000  Uiso   1.00
Pt312  Pt    0.53316   0.59949   0.63343   0.00000  Uiso   1.00
Pt313  Pt    0.59949   0.53316   0.63343   0.00000  Uiso   1.00
Pt314  Pt    0.46684   0.50000   0.66727   0.00000  Uiso   1.00
Pt315  Pt    0.50000   0.46684   0.66727   0.00000  Uiso   1.00
Pt316  Pt    0.46684   0.50000   0.33273   0.00000  Uiso   1.00
Pt317  Pt    0.50000   0.46684   0.33273   0.00000  Uiso   1.00
Pt318  Pt    0.50000   0.53316   0.66727   0.00000  Uiso   1.00
Pt319  Pt    0.53316   0.50000   0.66727   0.00000  Uiso   1.00
Pt320  Pt    0.50000   0.53316   0.33273   0.00000  Uiso   1.00
Pt321  Pt    0.53316   0.50000   0.33273   0.00000  Uiso   1.00
Pt322  Pt    0.33419   0.56633   0.53383   0.00000  Uiso   1.00
Pt323  Pt    0.56633   0.33419   0.53383   0.00000  Uiso   1.00
Pt324  Pt    0.33419   0.56633   0.46617   0.00000  Uiso   1.00
Pt325  Pt    0.56633   0.33419   0.46617   0.00000  Uiso   1.00
Pt326  Pt    0.33419   0.43367   0.53383   0.00000  Uiso   1.00
Pt327  Pt    0.43367   0.33419   0.53383   0.00000  Uiso   1.00
Pt328  Pt    0.33419   0.43367   0.46617   0.00000  Uiso   1.00
Pt329  Pt    0.43367   0.33419   0.46617   0.00000  Uiso   1.00
Pt330  Pt    0.56633   0.66581   0.53383   0.00000  Uiso   1.00
Pt331  Pt    0.66581   0.56633   0.53383   0.00000  Uiso   1.00
Pt332  Pt    0.56633   0.66581   0.46617   0.00000  Uiso   1.00
Pt333  Pt    0.66581   0.56633   0.46617   0.00000  Uiso   1.00
Pt334  Pt    0.43367   0.66581   0.53383   0.00000  Uiso   1.00
Pt335  Pt    0.66581   0.43367   0.53383   0.00000  Uiso   1.00
Pt336  Pt    0.43367   0.66581   0.46617   0.00000  Uiso   1.00
Pt337  Pt    0.66581   0.43367   0.46617   0.00000  Uiso   1.00
Pt338  Pt    0.33419   0.46684   0.56672   0.00000  Uiso   1.00
Pt339  Pt    0.46684   0.33419   0.56672   0.00000  Uiso   1.00
Pt340  Pt    0.33419   0.46684   0.43328   0.00000  Uiso   1.00
Pt341  Pt    0.46684   0.33419   0.43328   0.00000  Uiso   1.00
Pt342  Pt    0.33419   0.53316   0.56672   0.00000  Uiso   1.00
Pt343  Pt    0.53316   0.33419   0.56672   0.00000  Uiso   1.00
Pt344  Pt    0.33419   0.53316   0.43328   0.00000  Uiso   1.00
Pt345  Pt    0.53316   0.33419   0.43328   0.00000  Uiso   1.00
Pt346  Pt    0.46684   0.66581   0.56672   0.00000  Uiso   1.00
Pt347  Pt    0.66581   0.46684   0.56672   0.00000  Uiso   1.00
Pt348  Pt    0.46684   0.66581   0.43328   0.00000  Uiso   1.00
Pt349  Pt    0.66581   0.46684   0.43328   0.00000  Uiso   1.00
Pt350  Pt    0.53316   0.66581   0.56672   0.00000  Uiso   1.00
Pt351  Pt    0.66581   0.53316   0.56672   0.00000  Uiso   1.00
Pt352  Pt    0.53316   0.66581   0.43328   0.00000  Uiso   1.00
Pt353  Pt    0.66581   0.53316   0.43328   0.00000  Uiso   1.00
Pt354  Pt    0.46684   0.56633   0.66727   0.00000  Uiso   1.00
Pt355  Pt    0.56633   0.46684   0.66727   0.00000  Uiso   1.00
Pt356  Pt    0.46684   0.56633   0.33273   0.00000  Uiso   1.00
Pt357  Pt    0.56633   0.46684   0.33273   0.00000  Uiso   1.00
Pt358  Pt    0.53316   0.56633   0.66727   0.00000  Uiso   1.00
Pt359  Pt    0.56633   0.53316   0.66727   0.00000  Uiso   1.00
Pt360  Pt    0.53316   0.56633   0.33273   0.00000  Uiso   1.00
Pt361  Pt    0.56633   0.53316   0.33273   0.00000  Uiso   1.00
Pt362  Pt    0.43367   0.46684   0.66727   0.00000  Uiso   1.00
Pt363  Pt    0.46684   0.43367   0.66727   0.00000  Uiso   1.00
Pt364  Pt    0.43367   0.46684   0.33273   0.00000  Uiso   1.00
Pt365  Pt    0.46684   0.43367   0.33273   0.00000  Uiso   1.00
Pt366  Pt    0.43367   0.53316   0.66727   0.00000  Uiso   1.00
Pt367  Pt    0.53316   0.43367   0.66727   0.00000  Uiso   1.00
Pt368  Pt    0.43367   0.53316   0.33273   0.00000  Uiso   1.00
Pt369  Pt    0.53316   0.43367   0.33273   0.00000  Uiso   1.00
Pt370  Pt    0.63265   0.63265   0.50000   0.00000  Uiso   1.00
Pt371  Pt    0.36735   0.63265   0.50000   0.00000  Uiso   1.00
Pt372  Pt    0.63265   0.36735   0.50000   0.00000  Uiso   1.00
Pt373  Pt    0.36735   0.36735   0.50000   0.00000  Uiso   1.00
Pt374  Pt    0.50000   0.63265   0.36657   0.00000  Uiso   1.00
Pt375  Pt    0.63265   0.50000   0.36657   0.00000  Uiso   1.00
Pt376  Pt    0.50000   0.63265   0.63343   0.00000  Uiso   1.00
Pt377  Pt    0.63265   0.50000   0.63343   0.00000  Uiso   1.00
Pt378  Pt    0.36735   0.50000   0.36657   0.00000  Uiso   1.00
Pt379  Pt    0.50000   0.36735   0.36657   0.00000  Uiso   1.00
Pt380  Pt    0.36735   0.50000   0.63343   0.00000  Uiso   1.00
Pt381  Pt    0.50000   0.36735   0.63343   0.00000  Uiso   1.00
Pt382  Pt    0.33419   0.40051   0.50000   0.00000  Uiso   1.00
Pt383  Pt    0.40051   0.33419   0.50000   0.00000  Uiso   1.00
Pt384  Pt    0.33419   0.59949   0.50000   0.00000  Uiso   1.00
Pt385  Pt    0.59949   0.33419   0.50000   0.00000  Uiso   1.00
Pt386  Pt    0.40051   0.66581   0.50000   0.00000  Uiso   1.00
Pt387  Pt    0.66581   0.40051   0.50000   0.00000  Uiso   1.00
Pt388  Pt    0.59949   0.66581   0.50000   0.00000  Uiso   1.00
Pt389  Pt    0.66581   0.59949   0.50000   0.00000  Uiso   1.00
Pt390  Pt    0.40051   0.63265   0.59960   0.00000  Uiso   1.00
Pt391  Pt    0.63265   0.40051   0.59960   0.00000  Uiso   1.00
Pt392  Pt    0.40051   0.63265   0.40040   0.00000  Uiso   1.00
Pt393  Pt    0.63265   0.40051   0.40040   0.00000  Uiso   1.00
Pt394  Pt    0.33419   0.50000   0.59960   0.00000  Uiso   1.00
Pt395  Pt    0.50000   0.33419   0.59960   0.00000  Uiso   1.00
Pt396  Pt    0.33419   0.50000   0.40040   0.00000  Uiso   1.00
Pt397  Pt    0.50000   0.33419   0.40040   0.00000  Uiso   1.00
Pt398  Pt    0.59949   0.63265   0.59960   0.00000  Uiso   1.00
Pt399  Pt    0.63265   0.59949   0.59960   0.00000  Uiso   1.00
Pt400  Pt    0.59949   0.63265   0.40040   0.00000  Uiso   1.00
Pt401  Pt    0.63265   0.59949   0.40040   0.00000  Uiso   1.00
Pt402  Pt    0.50000   0.66581   0.59960   0.00000  Uiso   1.00
Pt403  Pt    0.66581   0.50000   0.59960   0.00000  Uiso   1.00
Pt404  Pt    0.40051   0.36735   0.59960   0.00000  Uiso   1.00
Pt405  Pt    0.36735   0.40051   0.59960   0.00000  Uiso   1.00
Pt406  Pt    0.50000   0.66581   0.40040   0.00000  Uiso   1.00
Pt407  Pt    0.66581   0.50000   0.40040   0.00000  Uiso   1.00
Pt408  Pt    0.40051   0.36735   0.40040   0.00000  Uiso   1.00
Pt409  Pt    0.36735   0.40051   0.40040   0.00000  Uiso   1.00
Pt410  Pt    0.36735   0.59949   0.59960   0.00000  Uiso   1.00
Pt411  Pt    0.59949   0.36735   0.59960   0.00000  Uiso   1.00
Pt412  Pt    0.36735   0.59949   0.40040   0.00000  Uiso   1.00
Pt413  Pt    0.59949   0.36735   0.40040   0.00000  Uiso   1.00
Pt414  Pt    0.40051   0.40051   0.36657   0.00000  Uiso   1.00
Pt415  Pt    0.40051   0.59949   0.36657   0.00000  Uiso   1.00
Pt416  Pt    0.59949   0.40051   0.36657   0.00000  Uiso   1.00
Pt417  Pt    0.40051   0.40051   0.63343   0.00000  Uiso   1.00
Pt418  Pt    0.59949   0.59949   0.36657   0.00000  Uiso   1.00
Pt419  Pt    0.40051   0.59949   0.63343   0.00000  Uiso   1.00
Pt420  Pt    0.59949   0.40051   0.63343   0.00000  Uiso   1.00
Pt421  Pt    0.59949   0.59949   0.63343   0.00000  Uiso   1.00
Pt422  Pt    0.40051   0.50000   0.66727   0.00000  Uiso   1.00
Pt423  Pt    0.50000   0.40051   0.66727   0.00000  Uiso   1.00
Pt424  Pt    0.40051   0.50000   0.33273   0.00000  Uiso   1.00
Pt425  Pt    0.50000   0.40051   0.33273   0.00000  Uiso   1.00
Pt426  Pt    0.50000   0.59949   0.66727   0.00000  Uiso   1.00
Pt427  Pt    0.59949   0.50000   0.66727   0.00000  Uiso   1.00
Pt428  Pt    0.50000   0.59949   0.33273   0.00000  Uiso   1.00
Pt429  Pt    0.59949   0.50000   0.33273   0.00000  Uiso   1.00
Pt430  Pt    0.50000   0.69898   0.50000   0.00000  Uiso   1.00
Pt431  Pt    0.69898   0.50000   0.50000   0.00000  Uiso   1.00
Pt432  Pt    0.30102   0.50000   0.50000   0.00000  Uiso   1.00
Pt433  Pt    0.50000   0.30102   0.50000   0.00000  Uiso   1.00
Pt434  Pt    0.63265   0.63265   0.56672   0.00000  Uiso   1.00
Pt435  Pt    0.63265   0.63265   0.43328   0.00000  Uiso   1.00
Pt436  Pt    0.36735   0.63265   0.56672   0.00000  Uiso   1.00
Pt437  Pt    0.63265   0.36735   0.56672   0.00000  Uiso   1.00
Pt438  Pt    0.36735   0.63265   0.43328   0.00000  Uiso   1.00
Pt439  Pt    0.63265   0.36735   0.43328   0.00000  Uiso   1.00
Pt440  Pt    0.36735   0.36735   0.56672   0.00000  Uiso   1.00
Pt441  Pt    0.36735   0.36735   0.43328   0.00000  Uiso   1.00
Pt442  Pt    0.56633   0.63265   0.36657   0.00000  Uiso   1.00
Pt443  Pt    0.63265   0.56633   0.36657   0.00000  Uiso   1.00
Pt444  Pt    0.43367   0.63265   0.36657   0.00000  Uiso   1.00
Pt445  Pt    0.63265   0.43367   0.36657   0.00000  Uiso   1.00
Pt446  Pt    0.56633   0.63265   0.63343   0.00000  Uiso   1.00
Pt447  Pt    0.63265   0.56633   0.63343   0.00000  Uiso   1.00
Pt448  Pt    0.36735   0.56633   0.36657   0.00000  Uiso   1.00
Pt449  Pt    0.56633   0.36735   0.36657   0.00000  Uiso   1.00
Pt450  Pt    0.43367   0.63265   0.63343   0.00000  Uiso   1.00
Pt451  Pt    0.63265   0.43367   0.63343   0.00000  Uiso   1.00
Pt452  Pt    0.43367   0.36735   0.36657   0.00000  Uiso   1.00
Pt453  Pt    0.36735   0.43367   0.36657   0.00000  Uiso   1.00
Pt454  Pt    0.36735   0.56633   0.63343   0.00000  Uiso   1.00
Pt455  Pt    0.56633   0.36735   0.63343   0.00000  Uiso   1.00
Pt456  Pt    0.36735   0.43367   0.63343   0.00000  Uiso   1.00
Pt457  Pt    0.43367   0.36735   0.63343   0.00000  Uiso   1.00
Pt458  Pt    0.50000   0.50000   0.70015   0.00000  Uiso   1.00
Pt459  Pt    0.50000   0.50000   0.29985   0.00000  Uiso   1.00
Pt460  Pt    0.33419   0.56633   0.59960   0.00000  Uiso   1.00
Pt461  Pt    0.56633   0.33419   0.59960   0.00000  Uiso   1.00
Pt462  Pt    0.33419   0.56633   0.40040   0.00000  Uiso   1.00
Pt463  Pt    0.56633   0.33419   0.40040   0.00000  Uiso   1.00
Pt464  Pt    0.33419   0.43367   0.59960   0.00000  Uiso   1.00
Pt465  Pt    0.43367   0.33419   0.59960   0.00000  Uiso   1.00
Pt466  Pt    0.43367   0.33419   0.40040   0.00000  Uiso   1.00
Pt467  Pt    0.33419   0.43367   0.40040   0.00000  Uiso   1.00
Pt468  Pt    0.56633   0.66581   0.59960   0.00000  Uiso   1.00
Pt469  Pt    0.66581   0.56633   0.59960   0.00000  Uiso   1.00
Pt470  Pt    0.56633   0.66581   0.40040   0.00000  Uiso   1.00
Pt471  Pt    0.66581   0.56633   0.40040   0.00000  Uiso   1.00
Pt472  Pt    0.43367   0.66581   0.59960   0.00000  Uiso   1.00
Pt473  Pt    0.66581   0.43367   0.59960   0.00000  Uiso   1.00
Pt474  Pt    0.43367   0.66581   0.40040   0.00000  Uiso   1.00
Pt475  Pt    0.66581   0.43367   0.40040   0.00000  Uiso   1.00
Pt476  Pt    0.46684   0.69898   0.53383   0.00000  Uiso   1.00
Pt477  Pt    0.69898   0.46684   0.53383   0.00000  Uiso   1.00
Pt478  Pt    0.53316   0.69898   0.53383   0.00000  Uiso   1.00
Pt479  Pt    0.69898   0.53316   0.53383   0.00000  Uiso   1.00
Pt480  Pt    0.30102   0.46684   0.53383   0.00000  Uiso   1.00
Pt481  Pt    0.46684   0.30102   0.53383   0.00000  Uiso   1.00
Pt482  Pt    0.46684   0.69898   0.46617   0.00000  Uiso   1.00
Pt483  Pt    0.69898   0.46684   0.46617   0.00000  Uiso   1.00
Pt484  Pt    0.30102   0.53316   0.53383   0.00000  Uiso   1.00
Pt485  Pt    0.53316   0.30102   0.53383   0.00000  Uiso   1.00
Pt486  Pt    0.53316   0.69898   0.46617   0.00000  Uiso   1.00
Pt487  Pt    0.69898   0.53316   0.46617   0.00000  Uiso   1.00
Pt488  Pt    0.30102   0.46684   0.46617   0.00000  Uiso   1.00
Pt489  Pt    0.46684   0.30102   0.46617   0.00000  Uiso   1.00
Pt490  Pt    0.30102   0.53316   0.46617   0.00000  Uiso   1.00
Pt491  Pt    0.53316   0.30102   0.46617   0.00000  Uiso   1.00
Pt492  Pt    0.40051   0.33419   0.56672   0.00000  Uiso   1.00
Pt493  Pt    0.33419   0.40051   0.56672   0.00000  Uiso   1.00
Pt494  Pt    0.40051   0.33419   0.43328   0.00000  Uiso   1.00
Pt495  Pt    0.33419   0.40051   0.43328   0.00000  Uiso   1.00
Pt496  Pt    0.33419   0.59949   0.56672   0.00000  Uiso   1.00
Pt497  Pt    0.59949   0.33419   0.56672   0.00000  Uiso   1.00
Pt498  Pt    0.33419   0.59949   0.43328   0.00000  Uiso   1.00
Pt499  Pt    0.59949   0.33419   0.43328   0.00000  Uiso   1.00
Pt500  Pt    0.40051   0.66581   0.56672   0.00000  Uiso   1.00
Pt501  Pt    0.66581   0.40051   0.56672   0.00000  Uiso   1.00
Pt502  Pt    0.40051   0.66581   0.43328   0.00000  Uiso   1.00
Pt503  Pt    0.66581   0.40051   0.43328   0.00000  Uiso   1.00
Pt504  Pt    0.59949   0.66581   0.56672   0.00000  Uiso   1.00
Pt505  Pt    0.66581   0.59949   0.56672   0.00000  Uiso   1.00
Pt506  Pt    0.59949   0.66581   0.43328   0.00000  Uiso   1.00
Pt507  Pt    0.66581   0.59949   0.43328   0.00000  Uiso   1.00
Pt508  Pt    0.46684   0.46684   0.70015   0.00000  Uiso   1.00
Pt509  Pt    0.46684   0.53316   0.70015   0.00000  Uiso   1.00
Pt510  Pt    0.53316   0.46684   0.70015   0.00000  Uiso   1.00
Pt511  Pt    0.53316   0.53316   0.70015   0.00000  Uiso   1.00
Pt512  Pt    0.46684   0.46684   0.29985   0.00000  Uiso   1.00
Pt513  Pt    0.53316   0.46684   0.29985   0.00000  Uiso   1.00
Pt514  Pt    0.46684   0.53316   0.29985   0.00000  Uiso   1.00
Pt515  Pt    0.53316   0.53316   0.29985   0.00000  Uiso   1.00
Pt516  Pt    0.40051   0.56633   0.66727   0.00000  Uiso   1.00
Pt517  Pt    0.56633   0.40051   0.66727   0.00000  Uiso   1.00
Pt518  Pt    0.40051   0.56633   0.33273   0.00000  Uiso   1.00
Pt519  Pt    0.56633   0.40051   0.33273   0.00000  Uiso   1.00
Pt520  Pt    0.40051   0.43367   0.66727   0.00000  Uiso   1.00
Pt521  Pt    0.43367   0.40051   0.66727   0.00000  Uiso   1.00
Pt522  Pt    0.56633   0.59949   0.66727   0.00000  Uiso   1.00
Pt523  Pt    0.59949   0.56633   0.66727   0.00000  Uiso   1.00
Pt524  Pt    0.40051   0.43367   0.33273   0.00000  Uiso   1.00
Pt525  Pt    0.43367   0.40051   0.33273   0.00000  Uiso   1.00
Pt526  Pt    0.56633   0.59949   0.33273   0.00000  Uiso   1.00
Pt527  Pt    0.59949   0.56633   0.33273   0.00000  Uiso   1.00
Pt528  Pt    0.43367   0.59949   0.66727   0.00000  Uiso   1.00
Pt529  Pt    0.59949   0.43367   0.66727   0.00000  Uiso   1.00
Pt530  Pt    0.43367   0.59949   0.33273   0.00000  Uiso   1.00
Pt531  Pt    0.59949   0.43367   0.33273   0.00000  Uiso   1.00
Pt532  Pt    0.56633   0.69898   0.50000   0.00000  Uiso   1.00
Pt533  Pt    0.69898   0.56633   0.50000   0.00000  Uiso   1.00
Pt534  Pt    0.30102   0.56633   0.50000   0.00000  Uiso   1.00
Pt535  Pt    0.56633   0.30102   0.50000   0.00000  Uiso   1.00
Pt536  Pt    0.43367   0.69898   0.50000   0.00000  Uiso   1.00
Pt537  Pt    0.69898   0.43367   0.50000   0.00000  Uiso   1.00
Pt538  Pt    0.30102   0.43367   0.50000   0.00000  Uiso   1.00
Pt539  Pt    0.43367   0.30102   0.50000   0.00000  Uiso   1.00
Pt540  Pt    0.50000   0.69898   0.56672   0.00000  Uiso   1.00
Pt541  Pt    0.69898   0.50000   0.56672   0.00000  Uiso   1.00
Pt542  Pt    0.50000   0.69898   0.43328   0.00000  Uiso   1.00
Pt543  Pt    0.69898   0.50000   0.43328   0.00000  Uiso   1.00
Pt544  Pt    0.30102   0.50000   0.56672   0.00000  Uiso   1.00
Pt545  Pt    0.50000   0.30102   0.56672   0.00000  Uiso   1.00
Pt546  Pt    0.30102   0.50000   0.43328   0.00000  Uiso   1.00
Pt547  Pt    0.50000   0.30102   0.43328   0.00000  Uiso   1.00
Pt548  Pt    0.50000   0.56633   0.70015   0.00000  Uiso   1.00
Pt549  Pt    0.56633   0.50000   0.70015   0.00000  Uiso   1.00
Pt550  Pt    0.43367   0.50000   0.70015   0.00000  Uiso   1.00
Pt551  Pt    0.50000   0.43367   0.70015   0.00000  Uiso   1.00
Pt552  Pt    0.50000   0.56633   0.29985   0.00000  Uiso   1.00
Pt553  Pt    0.56633   0.50000   0.29985   0.00000  Uiso   1.00
Pt554  Pt    0.43367   0.50000   0.29985   0.00000  Uiso   1.00
Pt555  Pt    0.50000   0.43367   0.29985   0.00000  Uiso   1.00
Pt556  Pt    0.33419   0.63265   0.53383   0.00000  Uiso   1.00
Pt557  Pt    0.63265   0.33419   0.53383   0.00000  Uiso   1.00
Pt558  Pt    0.33419   0.63265   0.46617   0.00000  Uiso   1.00
Pt559  Pt    0.63265   0.33419   0.46617   0.00000  Uiso   1.00
Pt560  Pt    0.63265   0.66581   0.53383   0.00000  Uiso   1.00
Pt561  Pt    0.66581   0.63265   0.53383   0.00000  Uiso   1.00
Pt562  Pt    0.33419   0.36735   0.53383   0.00000  Uiso   1.00
Pt563  Pt    0.36735   0.33419   0.53383   0.00000  Uiso   1.00
Pt564  Pt    0.63265   0.66581   0.46617   0.00000  Uiso   1.00
Pt565  Pt    0.66581   0.63265   0.46617   0.00000  Uiso   1.00
Pt566  Pt    0.33419   0.36735   0.46617   0.00000  Uiso   1.00
Pt567  Pt    0.36735   0.33419   0.46617   0.00000  Uiso   1.00
Pt568  Pt    0.36735   0.66581   0.53383   0.00000  Uiso   1.00
Pt569  Pt    0.66581   0.36735   0.53383   0.00000  Uiso   1.00
Pt570  Pt    0.36735   0.66581   0.46617   0.00000  Uiso   1.00
Pt571  Pt    0.66581   0.36735   0.46617   0.00000  Uiso   1.00
Pt572  Pt    0.33419   0.46684   0.36657   0.00000  Uiso   1.00
Pt573  Pt    0.46684   0.33419   0.36657   0.00000  Uiso   1.00
Pt574  Pt    0.33419   0.53316   0.36657   0.00000  Uiso   1.00
Pt575  Pt    0.53316   0.33419   0.36657   0.00000  Uiso   1.00
Pt576  Pt    0.33419   0.46684   0.63343   0.00000  Uiso   1.00
Pt577  Pt    0.46684   0.33419   0.63343   0.00000  Uiso   1.00
Pt578  Pt    0.46684   0.66581   0.36657   0.00000  Uiso   1.00
Pt579  Pt    0.66581   0.46684   0.36657   0.00000  Uiso   1.00
Pt580  Pt    0.33419   0.53316   0.63343   0.00000  Uiso   1.00
Pt581  Pt    0.53316   0.33419   0.63343   0.00000  Uiso   1.00
Pt582  Pt    0.53316   0.66581   0.36657   0.00000  Uiso   1.00
Pt583  Pt    0.66581   0.53316   0.36657   0.00000  Uiso   1.00
Pt584  Pt    0.46684   0.66581   0.63343   0.00000  Uiso   1.00
Pt585  Pt    0.66581   0.46684   0.63343   0.00000  Uiso   1.00
Pt586  Pt    0.53316   0.66581   0.63343   0.00000  Uiso   1.00
Pt587  Pt    0.66581   0.53316   0.63343   0.00000  Uiso   1.00
Pt588  Pt    0.46684   0.63265   0.66727   0.00000  Uiso   1.00
Pt589  Pt    0.63265   0.46684   0.66727   0.00000  Uiso   1.00
Pt590  Pt    0.46684   0.63265   0.33273   0.00000  Uiso   1.00
Pt591  Pt    0.63265   0.46684   0.33273   0.00000  Uiso   1.00
Pt592  Pt    0.53316   0.63265   0.66727   0.00000  Uiso   1.00
Pt593  Pt    0.63265   0.53316   0.66727   0.00000  Uiso   1.00
Pt594  Pt    0.53316   0.63265   0.33273   0.00000  Uiso   1.00
Pt595  Pt    0.63265   0.53316   0.33273   0.00000  Uiso   1.00
Pt596  Pt    0.36735   0.46684   0.66727   0.00000  Uiso   1.00
Pt597  Pt    0.46684   0.36735   0.66727   0.00000  Uiso   1.00
Pt598  Pt    0.46684   0.36735   0.33273   0.00000  Uiso   1.00
Pt599  Pt    0.36735   0.46684   0.33273   0.00000  Uiso   1.00
Pt600  Pt    0.36735   0.53316   0.66727   0.00000  Uiso   1.00
Pt601  Pt    0.53316   0.36735   0.66727   0.00000  Uiso   1.00
Pt602  Pt    0.36735   0.53316   0.33273   0.00000  Uiso   1.00
Pt603  Pt    0.53316   0.36735   0.33273   0.00000  Uiso   1.00
Pt604  Pt    0.56633   0.69898   0.56672   0.00000  Uiso   1.00
Pt605  Pt    0.69898   0.56633   0.56672   0.00000  Uiso   1.00
Pt606  Pt    0.56633   0.69898   0.43328   0.00000  Uiso   1.00
Pt607  Pt    0.69898   0.56633   0.43328   0.00000  Uiso   1.00
Pt608  Pt    0.30102   0.56633   0.56672   0.00000  Uiso   1.00
Pt609  Pt    0.56633   0.30102   0.56672   0.00000  Uiso   1.00
Pt610  Pt    0.30102   0.56633   0.43328   0.00000  Uiso   1.00
Pt611  Pt    0.56633   0.30102   0.43328   0.00000  Uiso   1.00
Pt612  Pt    0.43367   0.69898   0.56672   0.00000  Uiso   1.00
Pt613  Pt    0.69898   0.43367   0.56672   0.00000  Uiso   1.00
Pt614  Pt    0.43367   0.69898   0.43328   0.00000  Uiso   1.00
Pt615  Pt    0.69898   0.43367   0.43328   0.00000  Uiso   1.00
Pt616  Pt    0.30102   0.43367   0.56672   0.00000  Uiso   1.00
Pt617  Pt    0.43367   0.30102   0.56672   0.00000  Uiso   1.00
Pt618  Pt    0.30102   0.43367   0.43328   0.00000  Uiso   1.00
Pt619  Pt    0.43367   0.30102   0.43328   0.00000  Uiso   1.00
Pt620  Pt    0.56633   0.56633   0.70015   0.00000  Uiso   1.00
Pt621  Pt    0.43367   0.56633   0.70015   0.00000  Uiso   1.00
Pt622  Pt    0.56633   0.43367   0.70015   0.00000  Uiso   1.00
Pt623  Pt    0.43367   0.43367   0.70015   0.00000  Uiso   1.00
Pt624  Pt    0.56633   0.56633   0.29985   0.00000  Uiso   1.00
Pt625  Pt    0.43367   0.56633   0.29985   0.00000  Uiso   1.00
Pt626  Pt    0.56633   0.43367   0.29985   0.00000  Uiso   1.00
Pt627  Pt    0.43367   0.43367   0.29985   0.00000  Uiso   1.00
Pt628  Pt    0.46684   0.69898   0.59960   0.00000  Uiso   1.00
Pt629  Pt    0.69898   0.46684   0.59960   0.00000  Uiso   1.00
Pt630  Pt    0.46684   0.69898   0.40040   0.00000  Uiso   1.00
Pt631  Pt    0.69898   0.46684   0.40040   0.00000  Uiso   1.00
Pt632  Pt    0.53316   0.69898   0.59960   0.00000  Uiso   1.00
Pt633  Pt    0.69898   0.53316   0.59960   0.00000  Uiso   1.00
Pt634  Pt    0.30102   0.46684   0.59960   0.00000  Uiso   1.00
Pt635  Pt    0.46684   0.30102   0.59960   0.00000  Uiso   1.00
Pt636  Pt    0.53316   0.69898   0.40040   0.00000  Uiso   1.00
Pt637  Pt    0.69898   0.53316   0.40040   0.00000  Uiso   1.00
Pt638  Pt    0.30102   0.46684   0.40040   0.00000  Uiso   1.00
Pt639  Pt    0.46684   0.30102   0.40040   0.00000  Uiso   1.00
Pt640  Pt    0.30102   0.53316   0.59960   0.00000  Uiso   1.00
Pt641  Pt    0.53316   0.30102   0.59960   0.00000  Uiso   1.00
Pt642  Pt    0.30102   0.53316   0.40040   0.00000  Uiso   1.00
Pt643  Pt    0.53316   0.30102   0.40040   0.00000  Uiso   1.00
Pt644  Pt    0.40051   0.69898   0.53383   0.00000  Uiso   1.00
Pt645  Pt    0.69898   0.40051   0.53383   0.00000  Uiso   1.00
Pt646  Pt    0.30102   0.40051   0.53383   0.00000  Uiso   1.00
Pt647  Pt    0.40051   0.30102   0.53383   0.00000  Uiso   1.00
Pt648  Pt    0.40051   0.69898   0.46617   0.00000  Uiso   1.00
Pt649  Pt    0.69898   0.40051   0.46617   0.00000  Uiso   1.00
Pt650  Pt    0.30102   0.40051   0.46617   0.00000  Uiso   1.00
Pt651  Pt    0.40051   0.30102   0.46617   0.00000  Uiso   1.00
Pt652  Pt    0.59949   0.69898   0.53383   0.00000  Uiso   1.00
Pt653  Pt    0.69898   0.59949   0.53383   0.00000  Uiso   1.00
Pt654  Pt    0.30102   0.59949   0.53383   0.00000  Uiso   1.00
Pt655  Pt    0.59949   0.30102   0.53383   0.00000  Uiso   1.00
Pt656  Pt    0.59949   0.69898   0.46617   0.00000  Uiso   1.00
Pt657  Pt    0.69898   0.59949   0.46617   0.00000  Uiso   1.00
Pt658  Pt    0.30102   0.59949   0.46617   0.00000  Uiso   1.00
Pt659  Pt    0.59949   0.30102   0.46617   0.00000  Uiso   1.00
Pt660  Pt    0.46684   0.40051   0.70015   0.00000  Uiso   1.00
Pt661  Pt    0.40051   0.46684   0.70015   0.00000  Uiso   1.00
Pt662  Pt    0.40051   0.53316   0.70015   0.00000  Uiso   1.00
Pt663  Pt    0.53316   0.40051   0.70015   0.00000  Uiso   1.00
Pt664  Pt    0.46684   0.59949   0.70015   0.00000  Uiso   1.00
Pt665  Pt    0.59949   0.46684   0.70015   0.00000  Uiso   1.00
Pt666  Pt    0.53316   0.59949   0.70015   0.00000  Uiso   1.00
Pt667  Pt    0.59949   0.53316   0.70015   0.00000  Uiso   1.00
Pt668  Pt    0.40051   0.46684   0.29985   0.00000  Uiso   1.00
Pt669  Pt    0.46684   0.40051   0.29985   0.00000  Uiso   1.00
Pt670  Pt    0.40051   0.53316   0.29985   0.00000  Uiso   1.00
Pt671  Pt    0.53316   0.40051   0.29985   0.00000  Uiso   1.00
Pt672  Pt    0.46684   0.59949   0.29985   0.00000  Uiso   1.00
Pt673  Pt    0.59949   0.46684   0.29985   0.00000  Uiso   1.00
Pt674  Pt    0.53316   0.59949   0.29985   0.00000  Uiso   1.00
Pt675  Pt    0.59949   0.53316   0.29985   0.00000  Uiso   1.00
Pt676  Pt    0.63265   0.63265   0.36657   0.00000  Uiso   1.00
Pt677  Pt    0.63265   0.63265   0.63343   0.00000  Uiso   1.00
Pt678  Pt    0.36735   0.63265   0.36657   0.00000  Uiso   1.00
Pt679  Pt    0.63265   0.36735   0.36657   0.00000  Uiso   1.00
Pt680  Pt    0.36735   0.63265   0.63343   0.00000  Uiso   1.00
Pt681  Pt    0.63265   0.36735   0.63343   0.00000  Uiso   1.00
Pt682  Pt    0.36735   0.36735   0.36657   0.00000  Uiso   1.00
Pt683  Pt    0.36735   0.36735   0.63343   0.00000  Uiso   1.00
Pt684  Pt    0.33419   0.33419   0.50000   0.00000  Uiso   1.00
Pt685  Pt    0.33419   0.66581   0.50000   0.00000  Uiso   1.00
Pt686  Pt    0.66581   0.33419   0.50000   0.00000  Uiso   1.00
Pt687  Pt    0.26786   0.46684   0.50000   0.00000  Uiso   1.00
Pt688  Pt    0.46684   0.26786   0.50000   0.00000  Uiso   1.00
Pt689  Pt    0.26786   0.53316   0.50000   0.00000  Uiso   1.00
Pt690  Pt    0.53316   0.26786   0.50000   0.00000  Uiso   1.00
Pt691  Pt    0.66581   0.66581   0.50000   0.00000  Uiso   1.00
Pt692  Pt    0.46684   0.73214   0.50000   0.00000  Uiso   1.00
Pt693  Pt    0.73214   0.46684   0.50000   0.00000  Uiso   1.00
Pt694  Pt    0.53316   0.73214   0.50000   0.00000  Uiso   1.00
Pt695  Pt    0.73214   0.53316   0.50000   0.00000  Uiso   1.00
Pt696  Pt    0.33419   0.63265   0.59960   0.00000  Uiso   1.00
Pt697  Pt    0.63265   0.33419   0.59960   0.00000  Uiso   1.00
Pt698  Pt    0.33419   0.63265   0.40040   0.00000  Uiso   1.00
Pt699  Pt    0.63265   0.33419   0.40040   0.00000  Uiso   1.00
Pt700  Pt    0.63265   0.66581   0.59960   0.00000  Uiso   1.00
Pt701  Pt    0.66581   0.63265   0.59960   0.00000  Uiso   1.00
Pt702  Pt    0.63265   0.66581   0.40040   0.00000  Uiso   1.00
Pt703  Pt    0.66581   0.63265   0.40040   0.00000  Uiso   1.00
Pt704  Pt    0.36735   0.33419   0.59960   0.00000  Uiso   1.00
Pt705  Pt    0.33419   0.36735   0.59960   0.00000  Uiso   1.00
Pt706  Pt    0.36735   0.33419   0.40040   0.00000  Uiso   1.00
Pt707  Pt    0.33419   0.36735   0.40040   0.00000  Uiso   1.00
Pt708  Pt    0.36735   0.66581   0.59960   0.00000  Uiso   1.00
Pt709  Pt    0.66581   0.36735   0.59960   0.00000  Uiso   1.00
Pt710  Pt    0.36735   0.66581   0.40040   0.00000  Uiso   1.00
Pt711  Pt    0.66581   0.36735   0.40040   0.00000  Uiso   1.00
Pt712  Pt    0.26786   0.50000   0.53383   0.00000  Uiso   1.00
Pt713  Pt    0.50000   0.26786   0.53383   0.00000  Uiso   1.00
Pt714  Pt    0.26786   0.50000   0.46617   0.00000  Uiso   1.00
Pt715  Pt    0.50000   0.26786   0.46617   0.00000  Uiso   1.00
Pt716  Pt    0.50000   0.73214   0.53383   0.00000  Uiso   1.00
Pt717  Pt    0.73214   0.50000   0.53383   0.00000  Uiso   1.00
Pt718  Pt    0.50000   0.73214   0.46617   0.00000  Uiso   1.00
Pt719  Pt    0.73214   0.50000   0.46617   0.00000  Uiso   1.00
Pt720  Pt    0.33419   0.40051   0.36657   0.00000  Uiso   1.00
Pt721  Pt    0.40051   0.33419   0.36657   0.00000  Uiso   1.00
Pt722  Pt    0.33419   0.59949   0.36657   0.00000  Uiso   1.00
Pt723  Pt    0.59949   0.33419   0.36657   0.00000  Uiso   1.00
Pt724  Pt    0.33419   0.40051   0.63343   0.00000  Uiso   1.00
Pt725  Pt    0.40051   0.33419   0.63343   0.00000  Uiso   1.00
Pt726  Pt    0.40051   0.66581   0.36657   0.00000  Uiso   1.00
Pt727  Pt    0.66581   0.40051   0.36657   0.00000  Uiso   1.00
Pt728  Pt    0.33419   0.59949   0.63343   0.00000  Uiso   1.00
Pt729  Pt    0.59949   0.33419   0.63343   0.00000  Uiso   1.00
Pt730  Pt    0.59949   0.66581   0.36657   0.00000  Uiso   1.00
Pt731  Pt    0.66581   0.59949   0.36657   0.00000  Uiso   1.00
Pt732  Pt    0.40051   0.66581   0.63343   0.00000  Uiso   1.00
Pt733  Pt    0.66581   0.40051   0.63343   0.00000  Uiso   1.00
Pt734  Pt    0.59949   0.66581   0.63343   0.00000  Uiso   1.00
Pt735  Pt    0.66581   0.59949   0.63343   0.00000  Uiso   1.00
Pt736  Pt    0.50000   0.46684   0.73304   0.00000  Uiso   1.00
Pt737  Pt    0.46684   0.50000   0.73304   0.00000  Uiso   1.00
Pt738  Pt    0.46684   0.50000   0.26696   0.00000  Uiso   1.00
Pt739  Pt    0.50000   0.46684   0.26696   0.00000  Uiso   1.00
Pt740  Pt    0.50000   0.53316   0.73304   0.00000  Uiso   1.00
Pt741  Pt    0.53316   0.50000   0.73304   0.00000  Uiso   1.00
Pt742  Pt    0.50000   0.53316   0.26696   0.00000  Uiso   1.00
Pt743  Pt    0.53316   0.50000   0.26696   0.00000  Uiso   1.00
Pt744  Pt    0.40051   0.63265   0.66727   0.00000  Uiso   1.00
Pt745  Pt    0.63265   0.40051   0.66727   0.00000  Uiso   1.00
Pt746  Pt    0.40051   0.63265   0.33273   0.00000  Uiso   1.00
Pt747  Pt    0.63265   0.40051   0.33273   0.00000  Uiso   1.00
Pt748  Pt    0.33419   0.50000   0.66727   0.00000  Uiso   1.00
Pt749  Pt    0.50000   0.33419   0.66727   0.00000  Uiso   1.00
Pt750  Pt    0.33419   0.50000   0.33273   0.00000  Uiso   1.00
Pt751  Pt    0.50000   0.33419   0.33273   0.00000  Uiso   1.00
Pt752  Pt    0.59949   0.63265   0.66727   0.00000  Uiso   1.00
Pt753  Pt    0.63265   0.59949   0.66727   0.00000  Uiso   1.00
Pt754  Pt    0.59949   0.63265   0.33273   0.00000  Uiso   1.00
Pt755  Pt    0.63265   0.59949   0.33273   0.00000  Uiso   1.00
Pt756  Pt    0.50000   0.66581   0.66727   0.00000  Uiso   1.00
Pt757  Pt    0.66581   0.50000   0.66727   0.00000  Uiso   1.00
Pt758  Pt    0.40051   0.36735   0.66727   0.00000  Uiso   1.00
Pt759  Pt    0.36735   0.40051   0.66727   0.00000  Uiso   1.00
Pt760  Pt    0.50000   0.66581   0.33273   0.00000  Uiso   1.00
Pt761  Pt    0.66581   0.50000   0.33273   0.00000  Uiso   1.00
Pt762  Pt    0.40051   0.36735   0.33273   0.00000  Uiso   1.00
Pt763  Pt    0.36735   0.40051   0.33273   0.00000  Uiso   1.00
Pt764  Pt    0.36735   0.59949   0.66727   0.00000  Uiso   1.00
Pt765  Pt    0.59949   0.36735   0.66727   0.00000  Uiso   1.00
Pt766  Pt    0.36735   0.59949   0.33273   0.00000  Uiso   1.00
Pt767  Pt    0.59949   0.36735   0.33273   0.00000  Uiso   1.00
Pt768  Pt    0.63265   0.69898   0.50000   0.00000  Uiso   1.00
Pt769  Pt    0.69898   0.63265   0.50000   0.00000  Uiso   1.00
Pt770  Pt    0.30102   0.63265   0.50000   0.00000  Uiso   1.00
Pt771  Pt    0.63265   0.30102   0.50000   0.00000  Uiso   1.00
Pt772  Pt    0.36735   0.69898   0.50000   0.00000  Uiso   1.00
Pt773  Pt    0.69898   0.36735   0.50000   0.00000  Uiso   1.00
Pt774  Pt    0.30102   0.36735   0.50000   0.00000  Uiso   1.00
Pt775  Pt    0.36735   0.30102   0.50000   0.00000  Uiso   1.00
Pt776  Pt    0.50000   0.69898   0.36657   0.00000  Uiso   1.00
Pt777  Pt    0.69898   0.50000   0.36657   0.00000  Uiso   1.00
Pt778  Pt    0.30102   0.50000   0.36657   0.00000  Uiso   1.00
Pt779  Pt    0.50000   0.30102   0.36657   0.00000  Uiso   1.00
Pt780  Pt    0.50000   0.69898   0.63343   0.00000  Uiso   1.00
Pt781  Pt    0.69898   0.50000   0.63343   0.00000  Uiso   1.00
Pt782  Pt    0.30102   0.50000   0.63343   0.00000  Uiso   1.00
Pt783  Pt    0.50000   0.30102   0.63343   0.00000  Uiso   1.00
Pt784  Pt    0.50000   0.63265   0.70015   0.00000  Uiso   1.00
Pt785  Pt    0.63265   0.50000   0.70015   0.00000  Uiso   1.00
Pt786  Pt    0.36735   0.50000   0.70015   0.00000  Uiso   1.00
Pt787  Pt    0.50000   0.36735   0.70015   0.00000  Uiso   1.00
Pt788  Pt    0.50000   0.63265   0.29985   0.00000  Uiso   1.00
Pt789  Pt    0.63265   0.50000   0.29985   0.00000  Uiso   1.00
Pt790  Pt    0.36735   0.50000   0.29985   0.00000  Uiso   1.00
Pt791  Pt    0.50000   0.36735   0.29985   0.00000  Uiso   1.00
Pt792  Pt    0.40051   0.69898   0.59960   0.00000  Uiso   1.00
Pt793  Pt    0.69898   0.40051   0.59960   0.00000  Uiso   1.00
Pt794  Pt    0.40051   0.69898   0.40040   0.00000  Uiso   1.00
Pt795  Pt    0.69898   0.40051   0.40040   0.00000  Uiso   1.00
Pt796  Pt    0.30102   0.40051   0.59960   0.00000  Uiso   1.00
Pt797  Pt    0.40051   0.30102   0.59960   0.00000  Uiso   1.00
Pt798  Pt    0.30102   0.40051   0.40040   0.00000  Uiso   1.00
Pt799  Pt    0.40051   0.30102   0.40040   0.00000  Uiso   1.00
Pt800  Pt    0.59949   0.69898   0.59960   0.00000  Uiso   1.00
Pt801  Pt    0.69898   0.59949   0.59960   0.00000  Uiso   1.00
Pt802  Pt    0.59949   0.69898   0.40040   0.00000  Uiso   1.00
Pt803  Pt    0.69898   0.59949   0.40040   0.00000  Uiso   1.00
Pt804  Pt    0.30102   0.59949   0.59960   0.00000  Uiso   1.00
Pt805  Pt    0.59949   0.30102   0.59960   0.00000  Uiso   1.00
Pt806  Pt    0.30102   0.59949   0.40040   0.00000  Uiso   1.00
Pt807  Pt    0.59949   0.30102   0.40040   0.00000  Uiso   1.00
Pt808  Pt    0.26786   0.56633   0.53383   0.00000  Uiso   1.00
Pt809  Pt    0.56633   0.26786   0.53383   0.00000  Uiso   1.00
Pt810  Pt    0.26786   0.56633   0.46617   0.00000  Uiso   1.00
Pt811  Pt    0.56633   0.26786   0.46617   0.00000  Uiso   1.00
Pt812  Pt    0.26786   0.43367   0.53383   0.00000  Uiso   1.00
Pt813  Pt    0.43367   0.26786   0.53383   0.00000  Uiso   1.00
Pt814  Pt    0.26786   0.43367   0.46617   0.00000  Uiso   1.00
Pt815  Pt    0.43367   0.26786   0.46617   0.00000  Uiso   1.00
Pt816  Pt    0.56633   0.73214   0.53383   0.00000  Uiso   1.00
Pt817  Pt    0.73214   0.56633   0.53383   0.00000  Uiso   1.00
Pt818  Pt    0.56633   0.73214   0.46617   0.00000  Uiso   1.00
Pt819  Pt    0.73214   0.56633   0.46617   0.00000  Uiso   1.00
Pt820  Pt    0.43367   0.73214   0.53383   0.00000  Uiso   1.00
Pt821  Pt    0.73214   0.43367   0.53383   0.00000  Uiso   1.00
Pt822  Pt    0.43367   0.73214   0.46617   0.00000  Uiso   1.00
Pt823  Pt    0.73214   0.43367   0.46617   0.00000  Uiso   1.00
Pt824  Pt    0.33419   0.33419   0.56672   0.00000  Uiso   1.00
Pt825  Pt    0.33419   0.33419   0.43328   0.00000  Uiso   1.00
Pt826  Pt    0.33419   0.66581   0.56672   0.00000  Uiso   1.00
Pt827  Pt    0.66581   0.33419   0.56672   0.00000  Uiso   1.00
Pt828  Pt    0.33419   0.66581   0.43328   0.00000  Uiso   1.00
Pt829  Pt    0.66581   0.33419   0.43328   0.00000  Uiso   1.00
Pt830  Pt    0.26786   0.46684   0.56672   0.00000  Uiso   1.00
Pt831  Pt    0.46684   0.26786   0.56672   0.00000  Uiso   1.00
Pt832  Pt    0.26786   0.46684   0.43328   0.00000  Uiso   1.00
Pt833  Pt    0.46684   0.26786   0.43328   0.00000  Uiso   1.00
Pt834  Pt    0.26786   0.53316   0.56672   0.00000  Uiso   1.00
Pt835  Pt    0.53316   0.26786   0.56672   0.00000  Uiso   1.00
Pt836  Pt    0.26786   0.53316   0.43328   0.00000  Uiso   1.00
Pt837  Pt    0.53316   0.26786   0.43328   0.00000  Uiso   1.00
Pt838  Pt    0.66581   0.66581   0.56672   0.00000  Uiso   1.00
Pt839  Pt    0.66581   0.66581   0.43328   0.00000  Uiso   1.00
Pt840  Pt    0.46684   0.73214   0.56672   0.00000  Uiso   1.00
Pt841  Pt    0.73214   0.46684   0.56672   0.00000  Uiso   1.00
Pt842  Pt    0.46684   0.73214   0.43328   0.00000  Uiso   1.00
Pt843  Pt    0.73214   0.46684   0.43328   0.00000  Uiso   1.00
Pt844  Pt    0.53316   0.73214   0.56672   0.00000  Uiso   1.00
Pt845  Pt    0.73214   0.53316   0.56672   0.00000  Uiso   1.00
Pt846  Pt    0.53316   0.73214   0.43328   0.00000  Uiso   1.00
Pt847  Pt    0.73214   0.53316   0.43328   0.00000  Uiso   1.00
Pt848  Pt    0.46684   0.56633   0.73304   0.00000  Uiso   1.00
Pt849  Pt    0.56633   0.46684   0.73304   0.00000  Uiso   1.00
Pt850  Pt    0.46684   0.56633   0.26696   0.00000  Uiso   1.00
Pt851  Pt    0.56633   0.46684   0.26696   0.00000  Uiso   1.00
Pt852  Pt    0.53316   0.56633   0.73304   0.00000  Uiso   1.00
Pt853  Pt    0.56633   0.53316   0.73304   0.00000  Uiso   1.00
Pt854  Pt    0.53316   0.56633   0.26696   0.00000  Uiso   1.00
Pt855  Pt    0.56633   0.53316   0.26696   0.00000  Uiso   1.00
Pt856  Pt    0.46684   0.43367   0.73304   0.00000  Uiso   1.00
Pt857  Pt    0.43367   0.46684   0.73304   0.00000  Uiso   1.00
Pt858  Pt    0.46684   0.43367   0.26696   0.00000  Uiso   1.00
Pt859  Pt    0.43367   0.46684   0.26696   0.00000  Uiso   1.00
Pt860  Pt    0.43367   0.53316   0.73304   0.00000  Uiso   1.00
Pt861  Pt    0.53316   0.43367   0.73304   0.00000  Uiso   1.00
Pt862  Pt    0.43367   0.53316   0.26696   0.00000  Uiso   1.00
Pt863  Pt    0.53316   0.43367   0.26696   0.00000  Uiso   1.00
Pt864  Pt    0.40051   0.40051   0.70015   0.00000  Uiso   1.00
Pt865  Pt    0.40051   0.59949   0.70015   0.00000  Uiso   1.00
Pt866  Pt    0.59949   0.40051   0.70015   0.00000  Uiso   1.00
Pt867  Pt    0.59949   0.59949   0.70015   0.00000  Uiso   1.00
Pt868  Pt    0.40051   0.40051   0.29985   0.00000  Uiso   1.00
Pt869  Pt    0.40051   0.59949   0.29985   0.00000  Uiso   1.00
Pt870  Pt    0.59949   0.40051   0.29985   0.00000  Uiso   1.00
Pt871  Pt    0.59949   0.59949   0.29985   0.00000  Uiso   1.00
Pt872  Pt    0.33419   0.56633   0.66727   0.00000  Uiso   1.00
Pt873  Pt    0.56633   0.33419   0.66727   0.00000  Uiso   1.00
Pt874  Pt    0.33419   0.56633   0.33273   0.00000  Uiso   1.00
Pt875  Pt    0.56633   0.33419   0.33273   0.00000  Uiso   1.00
Pt876  Pt    0.43367   0.33419   0.66727   0.00000  Uiso   1.00
Pt877  Pt    0.33419   0.43367   0.66727   0.00000  Uiso   1.00
Pt878  Pt    0.33419   0.43367   0.33273   0.00000  Uiso   1.00
Pt879  Pt    0.43367   0.33419   0.33273   0.00000  Uiso   1.00
Pt880  Pt    0.56633   0.66581   0.66727   0.00000  Uiso   1.00
Pt881  Pt    0.66581   0.56633   0.66727   0.00000  Uiso   1.00
Pt882  Pt    0.56633   0.66581   0.33273   0.00000  Uiso   1.00
Pt883  Pt    0.66581   0.56633   0.33273   0.00000  Uiso   1.00
Pt884  Pt    0.43367   0.66581   0.66727   0.00000  Uiso   1.00
Pt885  Pt    0.66581   0.43367   0.66727   0.00000  Uiso   1.00
Pt886  Pt    0.43367   0.66581   0.33273   0.00000  Uiso   1.00
Pt887  Pt    0.66581   0.43367   0.33273   0.00000  Uiso   1.00
Pt888  Pt    0.63265   0.69898   0.56672   0.00000  Uiso   1.00
Pt889  Pt    0.69898   0.63265   0.56672   0.00000  Uiso   1.00
Pt890  Pt    0.63265   0.69898   0.43328   0.00000  Uiso   1.00
Pt891  Pt    0.69898   0.63265   0.43328   0.00000  Uiso   1.00
Pt892  Pt    0.30102   0.63265   0.56672   0.00000  Uiso   1.00
Pt893  Pt    0.63265   0.30102   0.56672   0.00000  Uiso   1.00
Pt894  Pt    0.30102   0.63265   0.43328   0.00000  Uiso   1.00
Pt895  Pt    0.63265   0.30102   0.43328   0.00000  Uiso   1.00
Pt896  Pt    0.36735   0.69898   0.56672   0.00000  Uiso   1.00
Pt897  Pt    0.69898   0.36735   0.56672   0.00000  Uiso   1.00
Pt898  Pt    0.36735   0.69898   0.43328   0.00000  Uiso   1.00
Pt899  Pt    0.69898   0.36735   0.43328   0.00000  Uiso   1.00
Pt900  Pt    0.36735   0.30102   0.56672   0.00000  Uiso   1.00
Pt901  Pt    0.30102   0.36735   0.56672   0.00000  Uiso   1.00
Pt902  Pt    0.36735   0.30102   0.43328   0.00000  Uiso   1.00
Pt903  Pt    0.30102   0.36735   0.43328   0.00000  Uiso   1.00
Pt904  Pt    0.56633   0.69898   0.36657   0.00000  Uiso   1.00
Pt905  Pt    0.69898   0.56633   0.36657   0.00000  Uiso   1.00
Pt906  Pt    0.30102   0.56633   0.36657   0.00000  Uiso   1.00
Pt907  Pt    0.56633   0.30102   0.36657   0.00000  Uiso   1.00
Pt908  Pt    0.43367   0.69898   0.36657   0.00000  Uiso   1.00
Pt909  Pt    0.69898   0.43367   0.36657   0.00000  Uiso   1.00
Pt910  Pt    0.30102   0.43367   0.36657   0.00000  Uiso   1.00
Pt911  Pt    0.43367   0.30102   0.36657   0.00000  Uiso   1.00
Pt912  Pt    0.56633   0.69898   0.63343   0.00000  Uiso   1.00
Pt913  Pt    0.69898   0.56633   0.63343   0.00000  Uiso   1.00
Pt914  Pt    0.30102   0.56633   0.63343   0.00000  Uiso   1.00
Pt915  Pt    0.56633   0.30102   0.63343   0.00000  Uiso   1.00
Pt916  Pt    0.43367   0.69898   0.63343   0.00000  Uiso   1.00
Pt917  Pt    0.69898   0.43367   0.63343   0.00000  Uiso   1.00
Pt918  Pt    0.30102   0.43367   0.63343   0.00000  Uiso   1.00
Pt919  Pt    0.43367   0.30102   0.63343   0.00000  Uiso   1.00
Pt920  Pt    0.56633   0.63265   0.70015   0.00000  Uiso   1.00
Pt921  Pt    0.63265   0.56633   0.70015   0.00000  Uiso   1.00
Pt922  Pt    0.43367   0.63265   0.70015   0.00000  Uiso   1.00
Pt923  Pt    0.63265   0.43367   0.70015   0.00000  Uiso   1.00
Pt924  Pt    0.36735   0.56633   0.70015   0.00000  Uiso   1.00
Pt925  Pt    0.56633   0.36735   0.70015   0.00000  Uiso   1.00
Pt926  Pt    0.56633   0.63265   0.29985   0.00000  Uiso   1.00
Pt927  Pt    0.63265   0.56633   0.29985   0.00000  Uiso   1.00
Pt928  Pt    0.36735   0.43367   0.70015   0.00000  Uiso   1.00
Pt929  Pt    0.43367   0.36735   0.70015   0.00000  Uiso   1.00
Pt930  Pt    0.43367   0.63265   0.29985   0.00000  Uiso   1.00
Pt931  Pt    0.63265   0.43367   0.29985   0.00000  Uiso   1.00
Pt932  Pt    0.36735   0.56633   0.29985   0.00000  Uiso   1.00
Pt933  Pt    0.56633   0.36735   0.29985   0.00000  Uiso   1.00
Pt934  Pt    0.36735   0.43367   0.29985   0.00000  Uiso   1.00
Pt935  Pt    0.43367   0.36735   0.29985   0.00000  Uiso   1.00
Pt936  Pt    0.26786   0.40051   0.50000   0.00000  Uiso   1.00
Pt937  Pt    0.40051   0.26786   0.50000   0.00000  Uiso   1.00
Pt938  Pt    0.26786   0.59949   0.50000   0.00000  Uiso   1.00
Pt939  Pt    0.59949   0.26786   0.50000   0.00000  Uiso   1.00
Pt940  Pt    0.40051   0.73214   0.50000   0.00000  Uiso   1.00
Pt941  Pt    0.73214   0.40051   0.50000   0.00000  Uiso   1.00
Pt942  Pt    0.59949   0.73214   0.50000   0.00000  Uiso   1.00
Pt943  Pt    0.73214   0.59949   0.50000   0.00000  Uiso   1.00
Pt944  Pt    0.26786   0.50000   0.59960   0.00000  Uiso   1.00
Pt945  Pt    0.50000   0.26786   0.59960   0.00000  Uiso   1.00
Pt946  Pt    0.26786   0.50000   0.40040   0.00000  Uiso   1.00
Pt947  Pt    0.50000   0.26786   0.40040   0.00000  Uiso   1.00
Pt948  Pt    0.50000   0.73214   0.59960   0.00000  Uiso   1.00
Pt949  Pt    0.73214   0.50000   0.59960   0.00000  Uiso   1.00
Pt950  Pt    0.50000   0.73214   0.40040   0.00000  Uiso   1.00
Pt951  Pt    0.73214   0.50000   0.40040   0.00000  Uiso   1.00
Pt952  Pt    0.40051   0.50000   0.73304   0.00000  Uiso   1.00
Pt953  Pt    0.50000   0.40051   0.73304   0.00000  Uiso   1.00
Pt954  Pt    0.40051   0.50000   0.26696   0.00000  Uiso   1.00
Pt955  Pt    0.50000   0.40051   0.26696   0.00000  Uiso   1.00
Pt956  Pt    0.50000   0.59949   0.73304   0.00000  Uiso   1.00
Pt957  Pt    0.59949   0.50000   0.73304   0.00000  Uiso   1.00
Pt958  Pt    0.50000   0.59949   0.26696   0.00000  Uiso   1.00
Pt959  Pt    0.59949   0.50000   0.26696   0.00000  Uiso   1.00
Pt960  Pt    0.26786   0.56633   0.59960   0.00000  Uiso   1.00
Pt961  Pt    0.56633   0.26786   0.59960   0.00000  Uiso   1.00
Pt962  Pt    0.26786   0.56633   0.40040   0.00000  Uiso   1.00
Pt963  Pt    0.56633   0.26786   0.40040   0.00000  Uiso   1.00
Pt964  Pt    0.26786   0.43367   0.59960   0.00000  Uiso   1.00
Pt965  Pt    0.43367   0.26786   0.59960   0.00000  Uiso   1.00
Pt966  Pt    0.26786   0.43367   0.40040   0.00000  Uiso   1.00
Pt967  Pt    0.43367   0.26786   0.40040   0.00000  Uiso   1.00
Pt968  Pt    0.56633   0.73214   0.59960   0.00000  Uiso   1.00
Pt969  Pt    0.73214   0.56633   0.59960   0.00000  Uiso   1.00
Pt970  Pt    0.56633   0.73214   0.40040   0.00000  Uiso   1.00
Pt971  Pt    0.73214   0.56633   0.40040   0.00000  Uiso   1.00
Pt972  Pt    0.43367   0.73214   0.59960   0.00000  Uiso   1.00
Pt973  Pt    0.73214   0.43367   0.59960   0.00000  Uiso   1.00
Pt974  Pt    0.43367   0.73214   0.40040   0.00000  Uiso   1.00
Pt975  Pt    0.73214   0.43367   0.40040   0.00000  Uiso   1.00
Pt976  Pt    0.33419   0.69898   0.53383   0.00000  Uiso   1.00
Pt977  Pt    0.69898   0.33419   0.53383   0.00000  Uiso   1.00
Pt978  Pt    0.33419   0.30102   0.53383   0.00000  Uiso   1.00
Pt979  Pt    0.30102   0.33419   0.53383   0.00000  Uiso   1.00
Pt980  Pt    0.33419   0.69898   0.46617   0.00000  Uiso   1.00
Pt981  Pt    0.69898   0.33419   0.46617   0.00000  Uiso   1.00
Pt982  Pt    0.33419   0.30102   0.46617   0.00000  Uiso   1.00
Pt983  Pt    0.30102   0.33419   0.46617   0.00000  Uiso   1.00
Pt984  Pt    0.66581   0.69898   0.53383   0.00000  Uiso   1.00
Pt985  Pt    0.69898   0.66581   0.53383   0.00000  Uiso   1.00
Pt986  Pt    0.30102   0.66581   0.53383   0.00000  Uiso   1.00
Pt987  Pt    0.66581   0.30102   0.53383   0.00000  Uiso   1.00
Pt988  Pt    0.66581   0.69898   0.46617   0.00000  Uiso   1.00
Pt989  Pt    0.69898   0.66581   0.46617   0.00000  Uiso   1.00
Pt990  Pt    0.30102   0.66581   0.46617   0.00000  Uiso   1.00
Pt991  Pt    0.66581   0.30102   0.46617   0.00000  Uiso   1.00
Pt992  Pt    0.26786   0.40051   0.56672   0.00000  Uiso   1.00
Pt993  Pt    0.40051   0.26786   0.56672   0.00000  Uiso   1.00
Pt994  Pt    0.26786   0.40051   0.43328   0.00000  Uiso   1.00
Pt995  Pt    0.40051   0.26786   0.43328   0.00000  Uiso   1.00
Pt996  Pt    0.26786   0.59949   0.56672   0.00000  Uiso   1.00
Pt997  Pt    0.59949   0.26786   0.56672   0.00000  Uiso   1.00
Pt998  Pt    0.26786   0.59949   0.43328   0.00000  Uiso   1.00
Pt999  Pt    0.59949   0.26786   0.43328   0.00000  Uiso   1.00
Pt1000 Pt    0.40051   0.73214   0.56672   0.00000  Uiso   1.00
Pt1001 Pt    0.73214   0.40051   0.56672   0.00000  Uiso   1.00
Pt1002 Pt    0.40051   0.73214   0.43328   0.00000  Uiso   1.00
Pt1003 Pt    0.73214   0.40051   0.43328   0.00000  Uiso   1.00
Pt1004 Pt    0.59949   0.73214   0.56672   0.00000  Uiso   1.00
Pt1005 Pt    0.73214   0.59949   0.56672   0.00000  Uiso   1.00
Pt1006 Pt    0.59949   0.73214   0.43328   0.00000  Uiso   1.00
Pt1007 Pt    0.73214   0.59949   0.43328   0.00000  Uiso   1.00
Pt1008 Pt    0.40051   0.56633   0.73304   0.00000  Uiso   1.00
Pt1009 Pt    0.56633   0.40051   0.73304   0.00000  Uiso   1.00
Pt1010 Pt    0.40051   0.56633   0.26696   0.00000  Uiso   1.00
Pt1011 Pt    0.56633   0.40051   0.26696   0.00000  Uiso   1.00
Pt1012 Pt    0.43367   0.40051   0.73304   0.00000  Uiso   1.00
Pt1013 Pt    0.40051   0.43367   0.73304   0.00000  Uiso   1.00
Pt1014 Pt    0.56633   0.59949   0.73304   0.00000  Uiso   1.00
Pt1015 Pt    0.59949   0.56633   0.73304   0.00000  Uiso   1.00
Pt1016 Pt    0.43367   0.40051   0.26696   0.00000  Uiso   1.00
Pt1017 Pt    0.40051   0.43367   0.26696   0.00000  Uiso   1.00
Pt1018 Pt    0.56633   0.59949   0.26696   0.00000  Uiso   1.00
Pt1019 Pt    0.59949   0.56633   0.26696   0.00000  Uiso   1.00
Pt1020 Pt    0.43367   0.59949   0.73304   0.00000  Uiso   1.00
Pt1021 Pt    0.59949   0.43367   0.73304   0.00000  Uiso   1.00
Pt1022 Pt    0.43367   0.59949   0.26696   0.00000  Uiso   1.00
Pt1023 Pt    0.59949   0.43367   0.26696   0.00000  Uiso   1.00
Pt1024 Pt    0.33419   0.46684   0.70015   0.00000  Uiso   1.00
Pt1025 Pt    0.46684   0.33419   0.70015   0.00000  Uiso   1.00
Pt1026 Pt    0.33419   0.53316   0.70015   0.00000  Uiso   1.00
Pt1027 Pt    0.53316   0.33419   0.70015   0.00000  Uiso   1.00
Pt1028 Pt    0.46684   0.66581   0.70015   0.00000  Uiso   1.00
Pt1029 Pt    0.66581   0.46684   0.70015   0.00000  Uiso   1.00
Pt1030 Pt    0.53316   0.66581   0.70015   0.00000  Uiso   1.00
Pt1031 Pt    0.66581   0.53316   0.70015   0.00000  Uiso   1.00
Pt1032 Pt    0.33419   0.46684   0.29985   0.00000  Uiso   1.00
Pt1033 Pt    0.46684   0.33419   0.29985   0.00000  Uiso   1.00
Pt1034 Pt    0.33419   0.53316   0.29985   0.00000  Uiso   1.00
Pt1035 Pt    0.53316   0.33419   0.29985   0.00000  Uiso   1.00
Pt1036 Pt    0.46684   0.66581   0.29985   0.00000  Uiso   1.00
Pt1037 Pt    0.66581   0.46684   0.29985   0.00000  Uiso   1.00
Pt1038 Pt    0.53316   0.66581   0.29985   0.00000  Uiso   1.00
Pt1039 Pt    0.66581   0.53316   0.29985   0.00000  Uiso   1.00
Pt1040 Pt    0.46684   0.69898   0.66727   0.00000  Uiso   1.00
Pt1041 Pt    0.69898   0.46684   0.66727   0.00000  Uiso   1.00
Pt1042 Pt    0.46684   0.69898   0.33273   0.00000  Uiso   1.00
Pt1043 Pt    0.69898   0.46684   0.33273   0.00000  Uiso   1.00
Pt1044 Pt    0.53316   0.69898   0.66727   0.00000  Uiso   1.00
Pt1045 Pt    0.69898   0.53316   0.66727   0.00000  Uiso   1.00
Pt1046 Pt    0.30102   0.46684   0.66727   0.00000  Uiso   1.00
Pt1047 Pt    0.46684   0.30102   0.66727   0.00000  Uiso   1.00
Pt1048 Pt    0.53316   0.69898   0.33273   0.00000  Uiso   1.00
Pt1049 Pt    0.69898   0.53316   0.33273   0.00000  Uiso   1.00
Pt1050 Pt    0.30102   0.46684   0.33273   0.00000  Uiso   1.00
Pt1051 Pt    0.46684   0.30102   0.33273   0.00000  Uiso   1.00
Pt1052 Pt    0.30102   0.53316   0.66727   0.00000  Uiso   1.00
Pt1053 Pt    0.53316   0.30102   0.66727   0.00000  Uiso   1.00
Pt1054 Pt    0.30102   0.53316   0.33273   0.00000  Uiso   1.00
Pt1055 Pt    0.53316   0.30102   0.33273   0.00000  Uiso   1.00
Pt1056 Pt    0.50000   0.76530   0.50000   0.00000  Uiso   1.00
Pt1057 Pt    0.76530   0.50000   0.50000   0.00000  Uiso   1.00
Pt1058 Pt    0.23470   0.50000   0.50000   0.00000  Uiso   1.00
Pt1059 Pt    0.50000   0.23470   0.50000   0.00000  Uiso   1.00
Pt1060 Pt    0.50000   0.50000   0.23313   0.00000  Uiso   1.00
Pt1061 Pt    0.50000   0.50000   0.76687   0.00000  Uiso   1.00
Pt1062 Pt    0.26786   0.63265   0.53383   0.00000  Uiso   1.00
Pt1063 Pt    0.63265   0.26786   0.53383   0.00000  Uiso   1.00
Pt1064 Pt    0.46684   0.76530   0.53383   0.00000  Uiso   1.00
Pt1065 Pt    0.76530   0.46684   0.53383   0.00000  Uiso   1.00
Pt1066 Pt    0.53316   0.76530   0.53383   0.00000  Uiso   1.00
Pt1067 Pt    0.76530   0.53316   0.53383   0.00000  Uiso   1.00
Pt1068 Pt    0.26786   0.63265   0.46617   0.00000  Uiso   1.00
Pt1069 Pt    0.63265   0.26786   0.46617   0.00000  Uiso   1.00
Pt1070 Pt    0.46684   0.76530   0.46617   0.00000  Uiso   1.00
Pt1071 Pt    0.76530   0.46684   0.46617   0.00000  Uiso   1.00
Pt1072 Pt    0.53316   0.76530   0.46617   0.00000  Uiso   1.00
Pt1073 Pt    0.76530   0.53316   0.46617   0.00000  Uiso   1.00
Pt1074 Pt    0.26786   0.36735   0.53383   0.00000  Uiso   1.00
Pt1075 Pt    0.36735   0.26786   0.53383   0.00000  Uiso   1.00
Pt1076 Pt    0.73214   0.63265   0.53383   0.00000  Uiso   1.00
Pt1077 Pt    0.63265   0.73214   0.53383   0.00000  Uiso   1.00
Pt1078 Pt    0.26786   0.36735   0.46617   0.00000  Uiso   1.00
Pt1079 Pt    0.36735   0.26786   0.46617   0.00000  Uiso   1.00
Pt1080 Pt    0.63265   0.73214   0.46617   0.00000  Uiso   1.00
Pt1081 Pt    0.73214   0.63265   0.46617   0.00000  Uiso   1.00
Pt1082 Pt    0.23470   0.46684   0.53383   0.00000  Uiso   1.00
Pt1083 Pt    0.46684   0.23470   0.53383   0.00000  Uiso   1.00
Pt1084 Pt    0.23470   0.53316   0.53383   0.00000  Uiso   1.00
Pt1085 Pt    0.53316   0.23470   0.53383   0.00000  Uiso   1.00
Pt1086 Pt    0.36735   0.73214   0.53383   0.00000  Uiso   1.00
Pt1087 Pt    0.73214   0.36735   0.53383   0.00000  Uiso   1.00
Pt1088 Pt    0.23470   0.46684   0.46617   0.00000  Uiso   1.00
Pt1089 Pt    0.46684   0.23470   0.46617   0.00000  Uiso   1.00
Pt1090 Pt    0.23470   0.53316   0.46617   0.00000  Uiso   1.00
Pt1091 Pt    0.53316   0.23470   0.46617   0.00000  Uiso   1.00
Pt1092 Pt    0.36735   0.73214   0.46617   0.00000  Uiso   1.00
Pt1093 Pt    0.73214   0.36735   0.46617   0.00000  Uiso   1.00
Pt1094 Pt    0.33419   0.33419   0.36657   0.00000  Uiso   1.00
Pt1095 Pt    0.33419   0.33419   0.63343   0.00000  Uiso   1.00
Pt1096 Pt    0.33419   0.66581   0.36657   0.00000  Uiso   1.00
Pt1097 Pt    0.66581   0.33419   0.36657   0.00000  Uiso   1.00
Pt1098 Pt    0.26786   0.46684   0.36657   0.00000  Uiso   1.00
Pt1099 Pt    0.46684   0.26786   0.36657   0.00000  Uiso   1.00
Pt1100 Pt    0.26786   0.53316   0.36657   0.00000  Uiso   1.00
Pt1101 Pt    0.53316   0.26786   0.36657   0.00000  Uiso   1.00
Pt1102 Pt    0.33419   0.66581   0.63343   0.00000  Uiso   1.00
Pt1103 Pt    0.66581   0.33419   0.63343   0.00000  Uiso   1.00
Pt1104 Pt    0.66581   0.66581   0.36657   0.00000  Uiso   1.00
Pt1105 Pt    0.46684   0.26786   0.63343   0.00000  Uiso   1.00
Pt1106 Pt    0.26786   0.46684   0.63343   0.00000  Uiso   1.00
Pt1107 Pt    0.26786   0.53316   0.63343   0.00000  Uiso   1.00
Pt1108 Pt    0.53316   0.26786   0.63343   0.00000  Uiso   1.00
Pt1109 Pt    0.66581   0.66581   0.63343   0.00000  Uiso   1.00
Pt1110 Pt    0.46684   0.73214   0.36657   0.00000  Uiso   1.00
Pt1111 Pt    0.73214   0.46684   0.36657   0.00000  Uiso   1.00
Pt1112 Pt    0.53316   0.73214   0.36657   0.00000  Uiso   1.00
Pt1113 Pt    0.73214   0.53316   0.36657   0.00000  Uiso   1.00
Pt1114 Pt    0.46684   0.73214   0.63343   0.00000  Uiso   1.00
Pt1115 Pt    0.73214   0.46684   0.63343   0.00000  Uiso   1.00
Pt1116 Pt    0.53316   0.73214   0.63343   0.00000  Uiso   1.00
Pt1117 Pt    0.73214   0.53316   0.63343   0.00000  Uiso   1.00
Pt1118 Pt    0.46684   0.63265   0.73304   0.00000  Uiso   1.00
Pt1119 Pt    0.63265   0.46684   0.73304   0.00000  Uiso   1.00
Pt1120 Pt    0.46684   0.63265   0.26696   0.00000  Uiso   1.00
Pt1121 Pt    0.63265   0.46684   0.26696   0.00000  Uiso   1.00
Pt1122 Pt    0.63265   0.53316   0.73304   0.00000  Uiso   1.00
Pt1123 Pt    0.53316   0.63265   0.73304   0.00000  Uiso   1.00
Pt1124 Pt    0.53316   0.63265   0.26696   0.00000  Uiso   1.00
Pt1125 Pt    0.63265   0.53316   0.26696   0.00000  Uiso   1.00
Pt1126 Pt    0.46684   0.36735   0.73304   0.00000  Uiso   1.00
Pt1127 Pt    0.36735   0.46684   0.73304   0.00000  Uiso   1.00
Pt1128 Pt    0.36735   0.46684   0.26696   0.00000  Uiso   1.00
Pt1129 Pt    0.46684   0.36735   0.26696   0.00000  Uiso   1.00
Pt1130 Pt    0.36735   0.53316   0.73304   0.00000  Uiso   1.00
Pt1131 Pt    0.53316   0.36735   0.73304   0.00000  Uiso   1.00
Pt1132 Pt    0.36735   0.53316   0.26696   0.00000  Uiso   1.00
Pt1133 Pt    0.53316   0.36735   0.26696   0.00000  Uiso   1.00
Pt1134 Pt    0.33419   0.63265   0.66727   0.00000  Uiso   1.00
Pt1135 Pt    0.63265   0.33419   0.66727   0.00000  Uiso   1.00
Pt1136 Pt    0.33419   0.63265   0.33273   0.00000  Uiso   1.00
Pt1137 Pt    0.63265   0.33419   0.33273   0.00000  Uiso   1.00
Pt1138 Pt    0.63265   0.66581   0.66727   0.00000  Uiso   1.00
Pt1139 Pt    0.66581   0.63265   0.66727   0.00000  Uiso   1.00
Pt1140 Pt    0.66581   0.63265   0.33273   0.00000  Uiso   1.00
Pt1141 Pt    0.63265   0.66581   0.33273   0.00000  Uiso   1.00
Pt1142 Pt    0.36735   0.33419   0.66727   0.00000  Uiso   1.00
Pt1143 Pt    0.33419   0.36735   0.66727   0.00000  Uiso   1.00
Pt1144 Pt    0.36735   0.33419   0.33273   0.00000  Uiso   1.00
Pt1145 Pt    0.33419   0.36735   0.33273   0.00000  Uiso   1.00
Pt1146 Pt    0.36735   0.66581   0.66727   0.00000  Uiso   1.00
Pt1147 Pt    0.66581   0.36735   0.66727   0.00000  Uiso   1.00
Pt1148 Pt    0.36735   0.66581   0.33273   0.00000  Uiso   1.00
Pt1149 Pt    0.66581   0.36735   0.33273   0.00000  Uiso   1.00
Pt1150 Pt    0.46684   0.46684   0.23313   0.00000  Uiso   1.00
Pt1151 Pt    0.46684   0.53316   0.23313   0.00000  Uiso   1.00
Pt1152 Pt    0.53316   0.46684   0.23313   0.00000  Uiso   1.00
Pt1153 Pt    0.53316   0.53316   0.23313   0.00000  Uiso   1.00
Pt1154 Pt    0.46684   0.46684   0.76687   0.00000  Uiso   1.00
Pt1155 Pt    0.46684   0.53316   0.76687   0.00000  Uiso   1.00
Pt1156 Pt    0.53316   0.46684   0.76687   0.00000  Uiso   1.00
Pt1157 Pt    0.53316   0.53316   0.76687   0.00000  Uiso   1.00
Pt1158 Pt    0.56633   0.76530   0.50000   0.00000  Uiso   1.00
Pt1159 Pt    0.76530   0.56633   0.50000   0.00000  Uiso   1.00
Pt1160 Pt    0.43367   0.76530   0.50000   0.00000  Uiso   1.00
Pt1161 Pt    0.76530   0.43367   0.50000   0.00000  Uiso   1.00
Pt1162 Pt    0.23470   0.56633   0.50000   0.00000  Uiso   1.00
Pt1163 Pt    0.56633   0.23470   0.50000   0.00000  Uiso   1.00
Pt1164 Pt    0.23470   0.43367   0.50000   0.00000  Uiso   1.00
Pt1165 Pt    0.43367   0.23470   0.50000   0.00000  Uiso   1.00
Pt1166 Pt    0.50000   0.76530   0.56672   0.00000  Uiso   1.00
Pt1167 Pt    0.76530   0.50000   0.56672   0.00000  Uiso   1.00
Pt1168 Pt    0.50000   0.76530   0.43328   0.00000  Uiso   1.00
Pt1169 Pt    0.76530   0.50000   0.43328   0.00000  Uiso   1.00
Pt1170 Pt    0.23470   0.50000   0.56672   0.00000  Uiso   1.00
Pt1171 Pt    0.50000   0.23470   0.56672   0.00000  Uiso   1.00
Pt1172 Pt    0.23470   0.50000   0.43328   0.00000  Uiso   1.00
Pt1173 Pt    0.50000   0.23470   0.43328   0.00000  Uiso   1.00
Pt1174 Pt    0.63265   0.69898   0.36657   0.00000  Uiso   1.00
Pt1175 Pt    0.69898   0.63265   0.36657   0.00000  Uiso   1.00
Pt1176 Pt    0.30102   0.63265   0.36657   0.00000  Uiso   1.00
Pt1177 Pt    0.63265   0.30102   0.36657   0.00000  Uiso   1.00
Pt1178 Pt    0.63265   0.69898   0.63343   0.00000  Uiso   1.00
Pt1179 Pt    0.69898   0.63265   0.63343   0.00000  Uiso   1.00
Pt1180 Pt    0.30102   0.63265   0.63343   0.00000  Uiso   1.00
Pt1181 Pt    0.63265   0.30102   0.63343   0.00000  Uiso   1.00
Pt1182 Pt    0.36735   0.69898   0.36657   0.00000  Uiso   1.00
Pt1183 Pt    0.69898   0.36735   0.36657   0.00000  Uiso   1.00
Pt1184 Pt    0.30102   0.36735   0.36657   0.00000  Uiso   1.00
Pt1185 Pt    0.36735   0.30102   0.36657   0.00000  Uiso   1.00
Pt1186 Pt    0.36735   0.69898   0.63343   0.00000  Uiso   1.00
Pt1187 Pt    0.69898   0.36735   0.63343   0.00000  Uiso   1.00
Pt1188 Pt    0.36735   0.30102   0.63343   0.00000  Uiso   1.00
Pt1189 Pt    0.30102   0.36735   0.63343   0.00000  Uiso   1.00
Pt1190 Pt    0.63265   0.63265   0.70015   0.00000  Uiso   1.00
Pt1191 Pt    0.36735   0.63265   0.70015   0.00000  Uiso   1.00
Pt1192 Pt    0.63265   0.36735   0.70015   0.00000  Uiso   1.00
Pt1193 Pt    0.63265   0.63265   0.29985   0.00000  Uiso   1.00
Pt1194 Pt    0.36735   0.36735   0.70015   0.00000  Uiso   1.00
Pt1195 Pt    0.36735   0.63265   0.29985   0.00000  Uiso   1.00
Pt1196 Pt    0.63265   0.36735   0.29985   0.00000  Uiso   1.00
Pt1197 Pt    0.36735   0.36735   0.29985   0.00000  Uiso   1.00
Pt1198 Pt    0.50000   0.56633   0.23313   0.00000  Uiso   1.00
Pt1199 Pt    0.56633   0.50000   0.23313   0.00000  Uiso   1.00
Pt1200 Pt    0.43367   0.50000   0.23313   0.00000  Uiso   1.00
Pt1201 Pt    0.50000   0.43367   0.23313   0.00000  Uiso   1.00
Pt1202 Pt    0.56633   0.50000   0.76687   0.00000  Uiso   1.00
Pt1203 Pt    0.50000   0.56633   0.76687   0.00000  Uiso   1.00
Pt1204 Pt    0.43367   0.50000   0.76687   0.00000  Uiso   1.00
Pt1205 Pt    0.50000   0.43367   0.76687   0.00000  Uiso   1.00
Pt1206 Pt    0.33419   0.69898   0.59960   0.00000  Uiso   1.00
Pt1207 Pt    0.69898   0.33419   0.59960   0.00000  Uiso   1.00
Pt1208 Pt    0.33419   0.69898   0.40040   0.00000  Uiso   1.00
Pt1209 Pt    0.69898   0.33419   0.40040   0.00000  Uiso   1.00
Pt1210 Pt    0.30102   0.33419   0.59960   0.00000  Uiso   1.00
Pt1211 Pt    0.33419   0.30102   0.59960   0.00000  Uiso   1.00
Pt1212 Pt    0.30102   0.33419   0.40040   0.00000  Uiso   1.00
Pt1213 Pt    0.33419   0.30102   0.40040   0.00000  Uiso   1.00
Pt1214 Pt    0.66581   0.69898   0.59960   0.00000  Uiso   1.00
Pt1215 Pt    0.69898   0.66581   0.59960   0.00000  Uiso   1.00
Pt1216 Pt    0.66581   0.69898   0.40040   0.00000  Uiso   1.00
Pt1217 Pt    0.69898   0.66581   0.40040   0.00000  Uiso   1.00
Pt1218 Pt    0.30102   0.66581   0.59960   0.00000  Uiso   1.00
Pt1219 Pt    0.66581   0.30102   0.59960   0.00000  Uiso   1.00
Pt1220 Pt    0.30102   0.66581   0.40040   0.00000  Uiso   1.00
Pt1221 Pt    0.66581   0.30102   0.40040   0.00000  Uiso   1.00
Pt1222 Pt    0.33419   0.40051   0.70015   0.00000  Uiso   1.00
Pt1223 Pt    0.40051   0.33419   0.70015   0.00000  Uiso   1.00
Pt1224 Pt    0.33419   0.59949   0.70015   0.00000  Uiso   1.00
Pt1225 Pt    0.59949   0.33419   0.70015   0.00000  Uiso   1.00
Pt1226 Pt    0.40051   0.66581   0.70015   0.00000  Uiso   1.00
Pt1227 Pt    0.66581   0.40051   0.70015   0.00000  Uiso   1.00
Pt1228 Pt    0.59949   0.66581   0.70015   0.00000  Uiso   1.00
Pt1229 Pt    0.66581   0.59949   0.70015   0.00000  Uiso   1.00
Pt1230 Pt    0.40051   0.33419   0.29985   0.00000  Uiso   1.00
Pt1231 Pt    0.33419   0.40051   0.29985   0.00000  Uiso   1.00
Pt1232 Pt    0.33419   0.59949   0.29985   0.00000  Uiso   1.00
Pt1233 Pt    0.59949   0.33419   0.29985   0.00000  Uiso   1.00
Pt1234 Pt    0.40051   0.66581   0.29985   0.00000  Uiso   1.00
Pt1235 Pt    0.66581   0.40051   0.29985   0.00000  Uiso   1.00
Pt1236 Pt    0.66581   0.59949   0.29985   0.00000  Uiso   1.00
Pt1237 Pt    0.59949   0.66581   0.29985   0.00000  Uiso   1.00
Pt1238 Pt    0.40051   0.69898   0.66727   0.00000  Uiso   1.00
Pt1239 Pt    0.69898   0.40051   0.66727   0.00000  Uiso   1.00
Pt1240 Pt    0.40051   0.69898   0.33273   0.00000  Uiso   1.00
Pt1241 Pt    0.69898   0.40051   0.33273   0.00000  Uiso   1.00
Pt1242 Pt    0.30102   0.40051   0.66727   0.00000  Uiso   1.00
Pt1243 Pt    0.40051   0.30102   0.66727   0.00000  Uiso   1.00
Pt1244 Pt    0.30102   0.40051   0.33273   0.00000  Uiso   1.00
Pt1245 Pt    0.40051   0.30102   0.33273   0.00000  Uiso   1.00
Pt1246 Pt    0.69898   0.59949   0.66727   0.00000  Uiso   1.00
Pt1247 Pt    0.59949   0.69898   0.66727   0.00000  Uiso   1.00
Pt1248 Pt    0.59949   0.69898   0.33273   0.00000  Uiso   1.00
Pt1249 Pt    0.69898   0.59949   0.33273   0.00000  Uiso   1.00
Pt1250 Pt    0.30102   0.59949   0.66727   0.00000  Uiso   1.00
Pt1251 Pt    0.59949   0.30102   0.66727   0.00000  Uiso   1.00
Pt1252 Pt    0.30102   0.59949   0.33273   0.00000  Uiso   1.00
Pt1253 Pt    0.59949   0.30102   0.33273   0.00000  Uiso   1.00
Pt1254 Pt    0.69898   0.69898   0.50000   0.00000  Uiso   1.00
Pt1255 Pt    0.30102   0.69898   0.50000   0.00000  Uiso   1.00
Pt1256 Pt    0.69898   0.30102   0.50000   0.00000  Uiso   1.00
Pt1257 Pt    0.30102   0.30102   0.50000   0.00000  Uiso   1.00
Pt1258 Pt    0.56633   0.76530   0.56672   0.00000  Uiso   1.00
Pt1259 Pt    0.76530   0.56633   0.56672   0.00000  Uiso   1.00
Pt1260 Pt    0.56633   0.76530   0.43328   0.00000  Uiso   1.00
Pt1261 Pt    0.76530   0.56633   0.43328   0.00000  Uiso   1.00
Pt1262 Pt    0.43367   0.76530   0.56672   0.00000  Uiso   1.00
Pt1263 Pt    0.76530   0.43367   0.56672   0.00000  Uiso   1.00
Pt1264 Pt    0.43367   0.76530   0.43328   0.00000  Uiso   1.00
Pt1265 Pt    0.76530   0.43367   0.43328   0.00000  Uiso   1.00
Pt1266 Pt    0.23470   0.56633   0.56672   0.00000  Uiso   1.00
Pt1267 Pt    0.56633   0.23470   0.56672   0.00000  Uiso   1.00
Pt1268 Pt    0.23470   0.56633   0.43328   0.00000  Uiso   1.00
Pt1269 Pt    0.56633   0.23470   0.43328   0.00000  Uiso   1.00
Pt1270 Pt    0.23470   0.43367   0.56672   0.00000  Uiso   1.00
Pt1271 Pt    0.43367   0.23470   0.56672   0.00000  Uiso   1.00
Pt1272 Pt    0.43367   0.23470   0.43328   0.00000  Uiso   1.00
Pt1273 Pt    0.23470   0.43367   0.43328   0.00000  Uiso   1.00
Pt1274 Pt    0.50000   0.69898   0.70015   0.00000  Uiso   1.00
Pt1275 Pt    0.69898   0.50000   0.70015   0.00000  Uiso   1.00
Pt1276 Pt    0.50000   0.30102   0.70015   0.00000  Uiso   1.00
Pt1277 Pt    0.30102   0.50000   0.70015   0.00000  Uiso   1.00
Pt1278 Pt    0.50000   0.69898   0.29985   0.00000  Uiso   1.00
Pt1279 Pt    0.69898   0.50000   0.29985   0.00000  Uiso   1.00
Pt1280 Pt    0.30102   0.50000   0.29985   0.00000  Uiso   1.00
Pt1281 Pt    0.50000   0.30102   0.29985   0.00000  Uiso   1.00
Pt1282 Pt    0.56633   0.56633   0.23313   0.00000  Uiso   1.00
Pt1283 Pt    0.43367   0.56633   0.23313   0.00000  Uiso   1.00
Pt1284 Pt    0.56633   0.43367   0.23313   0.00000  Uiso   1.00
Pt1285 Pt    0.43367   0.43367   0.23313   0.00000  Uiso   1.00
Pt1286 Pt    0.56633   0.56633   0.76687   0.00000  Uiso   1.00
Pt1287 Pt    0.43367   0.56633   0.76687   0.00000  Uiso   1.00
Pt1288 Pt    0.56633   0.43367   0.76687   0.00000  Uiso   1.00
Pt1289 Pt    0.43367   0.43367   0.76687   0.00000  Uiso   1.00
Pt1290 Pt    0.26786   0.33419   0.50000   0.00000  Uiso   1.00
Pt1291 Pt    0.33419   0.26786   0.50000   0.00000  Uiso   1.00
Pt1292 Pt    0.26786   0.66581   0.50000   0.00000  Uiso   1.00
Pt1293 Pt    0.66581   0.26786   0.50000   0.00000  Uiso   1.00
Pt1294 Pt    0.33419   0.73214   0.50000   0.00000  Uiso   1.00
Pt1295 Pt    0.73214   0.33419   0.50000   0.00000  Uiso   1.00
Pt1296 Pt    0.66581   0.73214   0.50000   0.00000  Uiso   1.00
Pt1297 Pt    0.73214   0.66581   0.50000   0.00000  Uiso   1.00
Pt1298 Pt    0.26786   0.63265   0.59960   0.00000  Uiso   1.00
Pt1299 Pt    0.63265   0.26786   0.59960   0.00000  Uiso   1.00
Pt1300 Pt    0.46684   0.76530   0.59960   0.00000  Uiso   1.00
Pt1301 Pt    0.76530   0.46684   0.59960   0.00000  Uiso   1.00
Pt1302 Pt    0.26786   0.63265   0.40040   0.00000  Uiso   1.00
Pt1303 Pt    0.63265   0.26786   0.40040   0.00000  Uiso   1.00
Pt1304 Pt    0.46684   0.76530   0.40040   0.00000  Uiso   1.00
Pt1305 Pt    0.76530   0.46684   0.40040   0.00000  Uiso   1.00
Pt1306 Pt    0.53316   0.76530   0.59960   0.00000  Uiso   1.00
Pt1307 Pt    0.76530   0.53316   0.59960   0.00000  Uiso   1.00
Pt1308 Pt    0.53316   0.76530   0.40040   0.00000  Uiso   1.00
Pt1309 Pt    0.76530   0.53316   0.40040   0.00000  Uiso   1.00
Pt1310 Pt    0.36735   0.26786   0.59960   0.00000  Uiso   1.00
Pt1311 Pt    0.26786   0.36735   0.59960   0.00000  Uiso   1.00
Pt1312 Pt    0.36735   0.26786   0.40040   0.00000  Uiso   1.00
Pt1313 Pt    0.26786   0.36735   0.40040   0.00000  Uiso   1.00
Pt1314 Pt    0.63265   0.73214   0.59960   0.00000  Uiso   1.00
Pt1315 Pt    0.73214   0.63265   0.59960   0.00000  Uiso   1.00
Pt1316 Pt    0.63265   0.73214   0.40040   0.00000  Uiso   1.00
Pt1317 Pt    0.73214   0.63265   0.40040   0.00000  Uiso   1.00
Pt1318 Pt    0.23470   0.46684   0.59960   0.00000  Uiso   1.00
Pt1319 Pt    0.46684   0.23470   0.59960   0.00000  Uiso   1.00
Pt1320 Pt    0.23470   0.46684   0.40040   0.00000  Uiso   1.00
Pt1321 Pt    0.46684   0.23470   0.40040   0.00000  Uiso   1.00
Pt1322 Pt    0.23470   0.53316   0.59960   0.00000  Uiso   1.00
Pt1323 Pt    0.53316   0.23470   0.59960   0.00000  Uiso   1.00
Pt1324 Pt    0.36735   0.73214   0.59960   0.00000  Uiso   1.00
Pt1325 Pt    0.73214   0.36735   0.59960   0.00000  Uiso   1.00
Pt1326 Pt    0.23470   0.53316   0.40040   0.00000  Uiso   1.00
Pt1327 Pt    0.53316   0.23470   0.40040   0.00000  Uiso   1.00
Pt1328 Pt    0.36735   0.73214   0.40040   0.00000  Uiso   1.00
Pt1329 Pt    0.73214   0.36735   0.40040   0.00000  Uiso   1.00
Pt1330 Pt    0.40051   0.76530   0.53383   0.00000  Uiso   1.00
Pt1331 Pt    0.76530   0.40051   0.53383   0.00000  Uiso   1.00
Pt1332 Pt    0.40051   0.76530   0.46617   0.00000  Uiso   1.00
Pt1333 Pt    0.76530   0.40051   0.46617   0.00000  Uiso   1.00
Pt1334 Pt    0.59949   0.76530   0.53383   0.00000  Uiso   1.00
Pt1335 Pt    0.76530   0.59949   0.53383   0.00000  Uiso   1.00
Pt1336 Pt    0.59949   0.76530   0.46617   0.00000  Uiso   1.00
Pt1337 Pt    0.76530   0.59949   0.46617   0.00000  Uiso   1.00
Pt1338 Pt    0.23470   0.40051   0.53383   0.00000  Uiso   1.00
Pt1339 Pt    0.40051   0.23470   0.53383   0.00000  Uiso   1.00
Pt1340 Pt    0.23470   0.40051   0.46617   0.00000  Uiso   1.00
Pt1341 Pt    0.40051   0.23470   0.46617   0.00000  Uiso   1.00
Pt1342 Pt    0.23470   0.59949   0.53383   0.00000  Uiso   1.00
Pt1343 Pt    0.59949   0.23470   0.53383   0.00000  Uiso   1.00
Pt1344 Pt    0.23470   0.59949   0.46617   0.00000  Uiso   1.00
Pt1345 Pt    0.59949   0.23470   0.46617   0.00000  Uiso   1.00
Pt1346 Pt    0.26786   0.40051   0.36657   0.00000  Uiso   1.00
Pt1347 Pt    0.40051   0.26786   0.36657   0.00000  Uiso   1.00
Pt1348 Pt    0.26786   0.59949   0.36657   0.00000  Uiso   1.00
Pt1349 Pt    0.59949   0.26786   0.36657   0.00000  Uiso   1.00
Pt1350 Pt    0.40051   0.26786   0.63343   0.00000  Uiso   1.00
Pt1351 Pt    0.26786   0.40051   0.63343   0.00000  Uiso   1.00
Pt1352 Pt    0.40051   0.73214   0.36657   0.00000  Uiso   1.00
Pt1353 Pt    0.73214   0.40051   0.36657   0.00000  Uiso   1.00
Pt1354 Pt    0.26786   0.59949   0.63343   0.00000  Uiso   1.00
Pt1355 Pt    0.59949   0.26786   0.63343   0.00000  Uiso   1.00
Pt1356 Pt    0.59949   0.73214   0.36657   0.00000  Uiso   1.00
Pt1357 Pt    0.73214   0.59949   0.36657   0.00000  Uiso   1.00
Pt1358 Pt    0.40051   0.73214   0.63343   0.00000  Uiso   1.00
Pt1359 Pt    0.73214   0.40051   0.63343   0.00000  Uiso   1.00
Pt1360 Pt    0.59949   0.73214   0.63343   0.00000  Uiso   1.00
Pt1361 Pt    0.73214   0.59949   0.63343   0.00000  Uiso   1.00
Pt1362 Pt    0.40051   0.63265   0.73304   0.00000  Uiso   1.00
Pt1363 Pt    0.63265   0.40051   0.73304   0.00000  Uiso   1.00
Pt1364 Pt    0.33419   0.50000   0.73304   0.00000  Uiso   1.00
Pt1365 Pt    0.50000   0.33419   0.73304   0.00000  Uiso   1.00
Pt1366 Pt    0.40051   0.63265   0.26696   0.00000  Uiso   1.00
Pt1367 Pt    0.63265   0.40051   0.26696   0.00000  Uiso   1.00
Pt1368 Pt    0.50000   0.33419   0.26696   0.00000  Uiso   1.00
Pt1369 Pt    0.33419   0.50000   0.26696   0.00000  Uiso   1.00
Pt1370 Pt    0.59949   0.63265   0.73304   0.00000  Uiso   1.00
Pt1371 Pt    0.63265   0.59949   0.73304   0.00000  Uiso   1.00
Pt1372 Pt    0.59949   0.63265   0.26696   0.00000  Uiso   1.00
Pt1373 Pt    0.63265   0.59949   0.26696   0.00000  Uiso   1.00
Pt1374 Pt    0.50000   0.66581   0.73304   0.00000  Uiso   1.00
Pt1375 Pt    0.66581   0.50000   0.73304   0.00000  Uiso   1.00
Pt1376 Pt    0.36735   0.40051   0.73304   0.00000  Uiso   1.00
Pt1377 Pt    0.40051   0.36735   0.73304   0.00000  Uiso   1.00
Pt1378 Pt    0.50000   0.66581   0.26696   0.00000  Uiso   1.00
Pt1379 Pt    0.66581   0.50000   0.26696   0.00000  Uiso   1.00
Pt1380 Pt    0.36735   0.40051   0.26696   0.00000  Uiso   1.00
Pt1381 Pt    0.40051   0.36735   0.26696   0.00000  Uiso   1.00
Pt1382 Pt    0.36735   0.59949   0.73304   0.00000  Uiso   1.00
Pt1383 Pt    0.59949   0.36735   0.73304   0.00000  Uiso   1.00
Pt1384 Pt    0.36735   0.59949   0.26696   0.00000  Uiso   1.00
Pt1385 Pt    0.59949   0.36735   0.26696   0.00000  Uiso   1.00
Pt1386 Pt    0.50000   0.26786   0.66727   0.00000  Uiso   1.00
Pt1387 Pt    0.26786   0.50000   0.66727   0.00000  Uiso   1.00
Pt1388 Pt    0.26786   0.50000   0.33273   0.00000  Uiso   1.00
Pt1389 Pt    0.50000   0.26786   0.33273   0.00000  Uiso   1.00
Pt1390 Pt    0.50000   0.73214   0.66727   0.00000  Uiso   1.00
Pt1391 Pt    0.73214   0.50000   0.66727   0.00000  Uiso   1.00
Pt1392 Pt    0.50000   0.73214   0.33273   0.00000  Uiso   1.00
Pt1393 Pt    0.73214   0.50000   0.33273   0.00000  Uiso   1.00
Pt1394 Pt    0.40051   0.46684   0.23313   0.00000  Uiso   1.00
Pt1395 Pt    0.46684   0.40051   0.23313   0.00000  Uiso   1.00
Pt1396 Pt    0.40051   0.53316   0.23313   0.00000  Uiso   1.00
Pt1397 Pt    0.53316   0.40051   0.23313   0.00000  Uiso   1.00
Pt1398 Pt    0.46684   0.59949   0.23313   0.00000  Uiso   1.00
Pt1399 Pt    0.59949   0.46684   0.23313   0.00000  Uiso   1.00
Pt1400 Pt    0.59949   0.53316   0.23313   0.00000  Uiso   1.00
Pt1401 Pt    0.53316   0.59949   0.23313   0.00000  Uiso   1.00
Pt1402 Pt    0.40051   0.46684   0.76687   0.00000  Uiso   1.00
Pt1403 Pt    0.46684   0.40051   0.76687   0.00000  Uiso   1.00
Pt1404 Pt    0.53316   0.40051   0.76687   0.00000  Uiso   1.00
Pt1405 Pt    0.40051   0.53316   0.76687   0.00000  Uiso   1.00
Pt1406 Pt    0.46684   0.59949   0.76687   0.00000  Uiso   1.00
Pt1407 Pt    0.59949   0.46684   0.76687   0.00000  Uiso   1.00
Pt1408 Pt    0.53316   0.59949   0.76687   0.00000  Uiso   1.00
Pt1409 Pt    0.59949   0.53316   0.76687   0.00000  Uiso   1.00
Pt1410 Pt    0.69898   0.69898   0.56672   0.00000  Uiso   1.00
Pt1411 Pt    0.69898   0.69898   0.43328   0.00000  Uiso   1.00
Pt1412 Pt    0.30102   0.69898   0.56672   0.00000  Uiso   1.00
Pt1413 Pt    0.69898   0.30102   0.56672   0.00000  Uiso   1.00
Pt1414 Pt    0.30102   0.69898   0.43328   0.00000  Uiso   1.00
Pt1415 Pt    0.69898   0.30102   0.43328   0.00000  Uiso   1.00
Pt1416 Pt    0.30102   0.30102   0.56672   0.00000  Uiso   1.00
Pt1417 Pt    0.30102   0.30102   0.43328   0.00000  Uiso   1.00
Pt1418 Pt    0.56633   0.69898   0.70015   0.00000  Uiso   1.00
Pt1419 Pt    0.69898   0.56633   0.70015   0.00000  Uiso   1.00
Pt1420 Pt    0.30102   0.56633   0.70015   0.00000  Uiso   1.00
Pt1421 Pt    0.56633   0.30102   0.70015   0.00000  Uiso   1.00
Pt1422 Pt    0.43367   0.69898   0.70015   0.00000  Uiso   1.00
Pt1423 Pt    0.69898   0.43367   0.70015   0.00000  Uiso   1.00
Pt1424 Pt    0.43367   0.30102   0.70015   0.00000  Uiso   1.00
Pt1425 Pt    0.30102   0.43367   0.70015   0.00000  Uiso   1.00
Pt1426 Pt    0.56633   0.69898   0.29985   0.00000  Uiso   1.00
Pt1427 Pt    0.69898   0.56633   0.29985   0.00000  Uiso   1.00
Pt1428 Pt    0.30102   0.56633   0.29985   0.00000  Uiso   1.00
Pt1429 Pt    0.56633   0.30102   0.29985   0.00000  Uiso   1.00
Pt1430 Pt    0.43367   0.69898   0.29985   0.00000  Uiso   1.00
Pt1431 Pt    0.69898   0.43367   0.29985   0.00000  Uiso   1.00
Pt1432 Pt    0.43367   0.30102   0.29985   0.00000  Uiso   1.00
Pt1433 Pt    0.30102   0.43367   0.29985   0.00000  Uiso   1.00
Pt1434 Pt    0.33419   0.26786   0.56672   0.00000  Uiso   1.00
Pt1435 Pt    0.26786   0.33419   0.56672   0.00000  Uiso   1.00
Pt1436 Pt    0.33419   0.26786   0.43328   0.00000  Uiso   1.00
Pt1437 Pt    0.26786   0.33419   0.43328   0.00000  Uiso   1.00
Pt1438 Pt    0.26786   0.66581   0.56672   0.00000  Uiso   1.00
Pt1439 Pt    0.66581   0.26786   0.56672   0.00000  Uiso   1.00
Pt1440 Pt    0.26786   0.66581   0.43328   0.00000  Uiso   1.00
Pt1441 Pt    0.66581   0.26786   0.43328   0.00000  Uiso   1.00
Pt1442 Pt    0.33419   0.73214   0.56672   0.00000  Uiso   1.00
Pt1443 Pt    0.73214   0.33419   0.56672   0.00000  Uiso   1.00
Pt1444 Pt    0.33419   0.73214   0.43328   0.00000  Uiso   1.00
Pt1445 Pt    0.73214   0.33419   0.43328   0.00000  Uiso   1.00
Pt1446 Pt    0.66581   0.73214   0.56672   0.00000  Uiso   1.00
Pt1447 Pt    0.73214   0.66581   0.56672   0.00000  Uiso   1.00
Pt1448 Pt    0.66581   0.73214   0.43328   0.00000  Uiso   1.00
Pt1449 Pt    0.73214   0.66581   0.43328   0.00000  Uiso   1.00
Pt1450 Pt    0.33419   0.56633   0.73304   0.00000  Uiso   1.00
Pt1451 Pt    0.56633   0.33419   0.73304   0.00000  Uiso   1.00
Pt1452 Pt    0.33419   0.56633   0.26696   0.00000  Uiso   1.00
Pt1453 Pt    0.56633   0.33419   0.26696   0.00000  Uiso   1.00
Pt1454 Pt    0.43367   0.33419   0.73304   0.00000  Uiso   1.00
Pt1455 Pt    0.33419   0.43367   0.73304   0.00000  Uiso   1.00
Pt1456 Pt    0.33419   0.43367   0.26696   0.00000  Uiso   1.00
Pt1457 Pt    0.43367   0.33419   0.26696   0.00000  Uiso   1.00
Pt1458 Pt    0.56633   0.66581   0.73304   0.00000  Uiso   1.00
Pt1459 Pt    0.66581   0.56633   0.73304   0.00000  Uiso   1.00
Pt1460 Pt    0.66581   0.56633   0.26696   0.00000  Uiso   1.00
Pt1461 Pt    0.56633   0.66581   0.26696   0.00000  Uiso   1.00
Pt1462 Pt    0.43367   0.66581   0.73304   0.00000  Uiso   1.00
Pt1463 Pt    0.66581   0.43367   0.73304   0.00000  Uiso   1.00
Pt1464 Pt    0.43367   0.66581   0.26696   0.00000  Uiso   1.00
Pt1465 Pt    0.66581   0.43367   0.26696   0.00000  Uiso   1.00
Pt1466 Pt    0.26786   0.56633   0.66727   0.00000  Uiso   1.00
Pt1467 Pt    0.56633   0.26786   0.66727   0.00000  Uiso   1.00
Pt1468 Pt    0.26786   0.56633   0.33273   0.00000  Uiso   1.00
Pt1469 Pt    0.56633   0.26786   0.33273   0.00000  Uiso   1.00
Pt1470 Pt    0.26786   0.43367   0.66727   0.00000  Uiso   1.00
Pt1471 Pt    0.43367   0.26786   0.66727   0.00000  Uiso   1.00
Pt1472 Pt    0.26786   0.43367   0.33273   0.00000  Uiso   1.00
Pt1473 Pt    0.43367   0.26786   0.33273   0.00000  Uiso   1.00
Pt1474 Pt    0.56633   0.73214   0.66727   0.00000  Uiso   1.00
Pt1475 Pt    0.73214   0.56633   0.66727   0.00000  Uiso   1.00
Pt1476 Pt    0.56633   0.73214   0.33273   0.00000  Uiso   1.00
Pt1477 Pt    0.73214   0.56633   0.33273   0.00000  Uiso   1.00
Pt1478 Pt    0.43367   0.73214   0.66727   0.00000  Uiso   1.00
Pt1479 Pt    0.73214   0.43367   0.66727   0.00000  Uiso   1.00
Pt1480 Pt    0.43367   0.73214   0.33273   0.00000  Uiso   1.00
Pt1481 Pt    0.73214   0.43367   0.33273   0.00000  Uiso   1.00
Pt1482 Pt    0.63265   0.76530   0.50000   0.00000  Uiso   1.00
Pt1483 Pt    0.76530   0.63265   0.50000   0.00000  Uiso   1.00
Pt1484 Pt    0.76530   0.36735   0.50000   0.00000  Uiso   1.00
Pt1485 Pt    0.36735   0.76530   0.50000   0.00000  Uiso   1.00
Pt1486 Pt    0.23470   0.63265   0.50000   0.00000  Uiso   1.00
Pt1487 Pt    0.63265   0.23470   0.50000   0.00000  Uiso   1.00
Pt1488 Pt    0.36735   0.23470   0.50000   0.00000  Uiso   1.00
Pt1489 Pt    0.23470   0.36735   0.50000   0.00000  Uiso   1.00
Pt1490 Pt    0.50000   0.76530   0.36657   0.00000  Uiso   1.00
Pt1491 Pt    0.76530   0.50000   0.36657   0.00000  Uiso   1.00
Pt1492 Pt    0.50000   0.76530   0.63343   0.00000  Uiso   1.00
Pt1493 Pt    0.76530   0.50000   0.63343   0.00000  Uiso   1.00
Pt1494 Pt    0.23470   0.50000   0.36657   0.00000  Uiso   1.00
Pt1495 Pt    0.50000   0.23470   0.36657   0.00000  Uiso   1.00
Pt1496 Pt    0.23470   0.50000   0.63343   0.00000  Uiso   1.00
Pt1497 Pt    0.50000   0.23470   0.63343   0.00000  Uiso   1.00
Pt1498 Pt    0.50000   0.63265   0.23313   0.00000  Uiso   1.00
Pt1499 Pt    0.63265   0.50000   0.23313   0.00000  Uiso   1.00
Pt1500 Pt    0.36735   0.50000   0.23313   0.00000  Uiso   1.00
Pt1501 Pt    0.50000   0.36735   0.23313   0.00000  Uiso   1.00
Pt1502 Pt    0.50000   0.63265   0.76687   0.00000  Uiso   1.00
Pt1503 Pt    0.63265   0.50000   0.76687   0.00000  Uiso   1.00
Pt1504 Pt    0.36735   0.50000   0.76687   0.00000  Uiso   1.00
Pt1505 Pt    0.50000   0.36735   0.76687   0.00000  Uiso   1.00
Pt1506 Pt    0.20154   0.46684   0.50000   0.00000  Uiso   1.00
Pt1507 Pt    0.46684   0.20154   0.50000   0.00000  Uiso   1.00
Pt1508 Pt    0.20154   0.53316   0.50000   0.00000  Uiso   1.00
Pt1509 Pt    0.53316   0.20154   0.50000   0.00000  Uiso   1.00
Pt1510 Pt    0.46684   0.79846   0.50000   0.00000  Uiso   1.00
Pt1511 Pt    0.79846   0.46684   0.50000   0.00000  Uiso   1.00
Pt1512 Pt    0.53316   0.79846   0.50000   0.00000  Uiso   1.00
Pt1513 Pt    0.79846   0.53316   0.50000   0.00000  Uiso   1.00
Pt1514 Pt    0.40051   0.76530   0.59960   0.00000  Uiso   1.00
Pt1515 Pt    0.76530   0.40051   0.59960   0.00000  Uiso   1.00
Pt1516 Pt    0.40051   0.76530   0.40040   0.00000  Uiso   1.00
Pt1517 Pt    0.76530   0.40051   0.40040   0.00000  Uiso   1.00
Pt1518 Pt    0.59949   0.76530   0.59960   0.00000  Uiso   1.00
Pt1519 Pt    0.76530   0.59949   0.59960   0.00000  Uiso   1.00
Pt1520 Pt    0.59949   0.76530   0.40040   0.00000  Uiso   1.00
Pt1521 Pt    0.76530   0.59949   0.40040   0.00000  Uiso   1.00
Pt1522 Pt    0.23470   0.40051   0.59960   0.00000  Uiso   1.00
Pt1523 Pt    0.40051   0.23470   0.59960   0.00000  Uiso   1.00
Pt1524 Pt    0.40051   0.23470   0.40040   0.00000  Uiso   1.00
Pt1525 Pt    0.23470   0.40051   0.40040   0.00000  Uiso   1.00
Pt1526 Pt    0.23470   0.59949   0.59960   0.00000  Uiso   1.00
Pt1527 Pt    0.59949   0.23470   0.59960   0.00000  Uiso   1.00
Pt1528 Pt    0.23470   0.59949   0.40040   0.00000  Uiso   1.00
Pt1529 Pt    0.59949   0.23470   0.40040   0.00000  Uiso   1.00
Pt1530 Pt    0.20154   0.50000   0.53383   0.00000  Uiso   1.00
Pt1531 Pt    0.50000   0.20154   0.53383   0.00000  Uiso   1.00
Pt1532 Pt    0.20154   0.50000   0.46617   0.00000  Uiso   1.00
Pt1533 Pt    0.50000   0.20154   0.46617   0.00000  Uiso   1.00
Pt1534 Pt    0.50000   0.79846   0.53383   0.00000  Uiso   1.00
Pt1535 Pt    0.79846   0.50000   0.53383   0.00000  Uiso   1.00
Pt1536 Pt    0.50000   0.79846   0.46617   0.00000  Uiso   1.00
Pt1537 Pt    0.79846   0.50000   0.46617   0.00000  Uiso   1.00
Pt1538 Pt    0.40051   0.40051   0.23313   0.00000  Uiso   1.00
Pt1539 Pt    0.40051   0.59949   0.23313   0.00000  Uiso   1.00
Pt1540 Pt    0.59949   0.40051   0.23313   0.00000  Uiso   1.00
Pt1541 Pt    0.59949   0.59949   0.23313   0.00000  Uiso   1.00
Pt1542 Pt    0.40051   0.40051   0.76687   0.00000  Uiso   1.00
Pt1543 Pt    0.40051   0.59949   0.76687   0.00000  Uiso   1.00
Pt1544 Pt    0.59949   0.40051   0.76687   0.00000  Uiso   1.00
Pt1545 Pt    0.59949   0.59949   0.76687   0.00000  Uiso   1.00
Pt1546 Pt    0.46684   0.50000   0.80070   0.00000  Uiso   1.00
Pt1547 Pt    0.50000   0.46684   0.80070   0.00000  Uiso   1.00
Pt1548 Pt    0.53316   0.50000   0.80070   0.00000  Uiso   1.00
Pt1549 Pt    0.50000   0.53316   0.80070   0.00000  Uiso   1.00
Pt1550 Pt    0.46684   0.50000   0.19930   0.00000  Uiso   1.00
Pt1551 Pt    0.50000   0.46684   0.19930   0.00000  Uiso   1.00
Pt1552 Pt    0.50000   0.53316   0.19930   0.00000  Uiso   1.00
Pt1553 Pt    0.53316   0.50000   0.19930   0.00000  Uiso   1.00
Pt1554 Pt    0.63265   0.76530   0.56672   0.00000  Uiso   1.00
Pt1555 Pt    0.76530   0.63265   0.56672   0.00000  Uiso   1.00
Pt1556 Pt    0.63265   0.76530   0.43328   0.00000  Uiso   1.00
Pt1557 Pt    0.76530   0.63265   0.43328   0.00000  Uiso   1.00
Pt1558 Pt    0.36735   0.76530   0.56672   0.00000  Uiso   1.00
Pt1559 Pt    0.76530   0.36735   0.56672   0.00000  Uiso   1.00
Pt1560 Pt    0.36735   0.76530   0.43328   0.00000  Uiso   1.00
Pt1561 Pt    0.76530   0.36735   0.43328   0.00000  Uiso   1.00
Pt1562 Pt    0.23470   0.63265   0.56672   0.00000  Uiso   1.00
Pt1563 Pt    0.63265   0.23470   0.56672   0.00000  Uiso   1.00
Pt1564 Pt    0.23470   0.63265   0.43328   0.00000  Uiso   1.00
Pt1565 Pt    0.63265   0.23470   0.43328   0.00000  Uiso   1.00
Pt1566 Pt    0.36735   0.23470   0.56672   0.00000  Uiso   1.00
Pt1567 Pt    0.23470   0.36735   0.56672   0.00000  Uiso   1.00
Pt1568 Pt    0.23470   0.36735   0.43328   0.00000  Uiso   1.00
Pt1569 Pt    0.36735   0.23470   0.43328   0.00000  Uiso   1.00
Pt1570 Pt    0.56633   0.76530   0.36657   0.00000  Uiso   1.00
Pt1571 Pt    0.76530   0.56633   0.36657   0.00000  Uiso   1.00
Pt1572 Pt    0.43367   0.76530   0.36657   0.00000  Uiso   1.00
Pt1573 Pt    0.76530   0.43367   0.36657   0.00000  Uiso   1.00
Pt1574 Pt    0.56633   0.76530   0.63343   0.00000  Uiso   1.00
Pt1575 Pt    0.76530   0.56633   0.63343   0.00000  Uiso   1.00
Pt1576 Pt    0.43367   0.76530   0.63343   0.00000  Uiso   1.00
Pt1577 Pt    0.76530   0.43367   0.63343   0.00000  Uiso   1.00
Pt1578 Pt    0.23470   0.56633   0.36657   0.00000  Uiso   1.00
Pt1579 Pt    0.56633   0.23470   0.36657   0.00000  Uiso   1.00
Pt1580 Pt    0.23470   0.43367   0.36657   0.00000  Uiso   1.00
Pt1581 Pt    0.43367   0.23470   0.36657   0.00000  Uiso   1.00
Pt1582 Pt    0.23470   0.56633   0.63343   0.00000  Uiso   1.00
Pt1583 Pt    0.56633   0.23470   0.63343   0.00000  Uiso   1.00
Pt1584 Pt    0.23470   0.43367   0.63343   0.00000  Uiso   1.00
Pt1585 Pt    0.43367   0.23470   0.63343   0.00000  Uiso   1.00
Pt1586 Pt    0.63265   0.56633   0.23313   0.00000  Uiso   1.00
Pt1587 Pt    0.56633   0.63265   0.23313   0.00000  Uiso   1.00
Pt1588 Pt    0.43367   0.63265   0.23313   0.00000  Uiso   1.00
Pt1589 Pt    0.63265   0.43367   0.23313   0.00000  Uiso   1.00
Pt1590 Pt    0.36735   0.56633   0.23313   0.00000  Uiso   1.00
Pt1591 Pt    0.56633   0.36735   0.23313   0.00000  Uiso   1.00
Pt1592 Pt    0.43367   0.36735   0.23313   0.00000  Uiso   1.00
Pt1593 Pt    0.36735   0.43367   0.23313   0.00000  Uiso   1.00
Pt1594 Pt    0.56633   0.63265   0.76687   0.00000  Uiso   1.00
Pt1595 Pt    0.63265   0.56633   0.76687   0.00000  Uiso   1.00
Pt1596 Pt    0.43367   0.63265   0.76687   0.00000  Uiso   1.00
Pt1597 Pt    0.63265   0.43367   0.76687   0.00000  Uiso   1.00
Pt1598 Pt    0.36735   0.56633   0.76687   0.00000  Uiso   1.00
Pt1599 Pt    0.56633   0.36735   0.76687   0.00000  Uiso   1.00
Pt1600 Pt    0.43367   0.36735   0.76687   0.00000  Uiso   1.00
Pt1601 Pt    0.36735   0.43367   0.76687   0.00000  Uiso   1.00
Pt1602 Pt    0.20154   0.56633   0.53383   0.00000  Uiso   1.00
Pt1603 Pt    0.56633   0.20154   0.53383   0.00000  Uiso   1.00
Pt1604 Pt    0.20154   0.56633   0.46617   0.00000  Uiso   1.00
Pt1605 Pt    0.56633   0.20154   0.46617   0.00000  Uiso   1.00
Pt1606 Pt    0.43367   0.20154   0.53383   0.00000  Uiso   1.00
Pt1607 Pt    0.20154   0.43367   0.53383   0.00000  Uiso   1.00
Pt1608 Pt    0.26786   0.69898   0.53383   0.00000  Uiso   1.00
Pt1609 Pt    0.69898   0.26786   0.53383   0.00000  Uiso   1.00
Pt1610 Pt    0.43367   0.20154   0.46617   0.00000  Uiso   1.00
Pt1611 Pt    0.20154   0.43367   0.46617   0.00000  Uiso   1.00
Pt1612 Pt    0.30102   0.26786   0.53383   0.00000  Uiso   1.00
Pt1613 Pt    0.26786   0.30102   0.53383   0.00000  Uiso   1.00
Pt1614 Pt    0.26786   0.69898   0.46617   0.00000  Uiso   1.00
Pt1615 Pt    0.69898   0.26786   0.46617   0.00000  Uiso   1.00
Pt1616 Pt    0.30102   0.26786   0.46617   0.00000  Uiso   1.00
Pt1617 Pt    0.26786   0.30102   0.46617   0.00000  Uiso   1.00
Pt1618 Pt    0.56633   0.79846   0.53383   0.00000  Uiso   1.00
Pt1619 Pt    0.79846   0.56633   0.53383   0.00000  Uiso   1.00
Pt1620 Pt    0.56633   0.79846   0.46617   0.00000  Uiso   1.00
Pt1621 Pt    0.79846   0.56633   0.46617   0.00000  Uiso   1.00
Pt1622 Pt    0.73214   0.69898   0.53383   0.00000  Uiso   1.00
Pt1623 Pt    0.69898   0.73214   0.53383   0.00000  Uiso   1.00
Pt1624 Pt    0.43367   0.79846   0.53383   0.00000  Uiso   1.00
Pt1625 Pt    0.79846   0.43367   0.53383   0.00000  Uiso   1.00
Pt1626 Pt    0.30102   0.73214   0.53383   0.00000  Uiso   1.00
Pt1627 Pt    0.73214   0.30102   0.53383   0.00000  Uiso   1.00
Pt1628 Pt    0.69898   0.73214   0.46617   0.00000  Uiso   1.00
Pt1629 Pt    0.73214   0.69898   0.46617   0.00000  Uiso   1.00
Pt1630 Pt    0.43367   0.79846   0.46617   0.00000  Uiso   1.00
Pt1631 Pt    0.79846   0.43367   0.46617   0.00000  Uiso   1.00
Pt1632 Pt    0.30102   0.73214   0.46617   0.00000  Uiso   1.00
Pt1633 Pt    0.73214   0.30102   0.46617   0.00000  Uiso   1.00
Pt1634 Pt    0.20154   0.46684   0.56672   0.00000  Uiso   1.00
Pt1635 Pt    0.46684   0.20154   0.56672   0.00000  Uiso   1.00
Pt1636 Pt    0.20154   0.46684   0.43328   0.00000  Uiso   1.00
Pt1637 Pt    0.46684   0.20154   0.43328   0.00000  Uiso   1.00
Pt1638 Pt    0.20154   0.53316   0.56672   0.00000  Uiso   1.00
Pt1639 Pt    0.53316   0.20154   0.56672   0.00000  Uiso   1.00
Pt1640 Pt    0.20154   0.53316   0.43328   0.00000  Uiso   1.00
Pt1641 Pt    0.53316   0.20154   0.43328   0.00000  Uiso   1.00
Pt1642 Pt    0.46684   0.79846   0.56672   0.00000  Uiso   1.00
Pt1643 Pt    0.79846   0.46684   0.56672   0.00000  Uiso   1.00
Pt1644 Pt    0.46684   0.79846   0.43328   0.00000  Uiso   1.00
Pt1645 Pt    0.79846   0.46684   0.43328   0.00000  Uiso   1.00
Pt1646 Pt    0.53316   0.79846   0.56672   0.00000  Uiso   1.00
Pt1647 Pt    0.79846   0.53316   0.56672   0.00000  Uiso   1.00
Pt1648 Pt    0.53316   0.79846   0.43328   0.00000  Uiso   1.00
Pt1649 Pt    0.79846   0.53316   0.43328   0.00000  Uiso   1.00
Pt1650 Pt    0.46684   0.69898   0.73304   0.00000  Uiso   1.00
Pt1651 Pt    0.69898   0.46684   0.73304   0.00000  Uiso   1.00
Pt1652 Pt    0.46684   0.69898   0.26696   0.00000  Uiso   1.00
Pt1653 Pt    0.69898   0.46684   0.26696   0.00000  Uiso   1.00
Pt1654 Pt    0.53316   0.69898   0.73304   0.00000  Uiso   1.00
Pt1655 Pt    0.69898   0.53316   0.73304   0.00000  Uiso   1.00
Pt1656 Pt    0.30102   0.46684   0.73304   0.00000  Uiso   1.00
Pt1657 Pt    0.46684   0.30102   0.73304   0.00000  Uiso   1.00
Pt1658 Pt    0.53316   0.69898   0.26696   0.00000  Uiso   1.00
Pt1659 Pt    0.69898   0.53316   0.26696   0.00000  Uiso   1.00
Pt1660 Pt    0.30102   0.46684   0.26696   0.00000  Uiso   1.00
Pt1661 Pt    0.46684   0.30102   0.26696   0.00000  Uiso   1.00
Pt1662 Pt    0.30102   0.53316   0.73304   0.00000  Uiso   1.00
Pt1663 Pt    0.53316   0.30102   0.73304   0.00000  Uiso   1.00
Pt1664 Pt    0.30102   0.53316   0.26696   0.00000  Uiso   1.00
Pt1665 Pt    0.53316   0.30102   0.26696   0.00000  Uiso   1.00
Pt1666 Pt    0.33419   0.33419   0.70015   0.00000  Uiso   1.00
Pt1667 Pt    0.33419   0.66581   0.70015   0.00000  Uiso   1.00
Pt1668 Pt    0.66581   0.33419   0.70015   0.00000  Uiso   1.00
Pt1669 Pt    0.33419   0.33419   0.29985   0.00000  Uiso   1.00
Pt1670 Pt    0.26786   0.46684   0.70015   0.00000  Uiso   1.00
Pt1671 Pt    0.46684   0.26786   0.70015   0.00000  Uiso   1.00
Pt1672 Pt    0.26786   0.53316   0.70015   0.00000  Uiso   1.00
Pt1673 Pt    0.53316   0.26786   0.70015   0.00000  Uiso   1.00
Pt1674 Pt    0.66581   0.66581   0.70015   0.00000  Uiso   1.00
Pt1675 Pt    0.33419   0.66581   0.29985   0.00000  Uiso   1.00
Pt1676 Pt    0.66581   0.33419   0.29985   0.00000  Uiso   1.00
Pt1677 Pt    0.46684   0.73214   0.70015   0.00000  Uiso   1.00
Pt1678 Pt    0.73214   0.46684   0.70015   0.00000  Uiso   1.00
Pt1679 Pt    0.53316   0.73214   0.70015   0.00000  Uiso   1.00
Pt1680 Pt    0.73214   0.53316   0.70015   0.00000  Uiso   1.00
Pt1681 Pt    0.26786   0.46684   0.29985   0.00000  Uiso   1.00
Pt1682 Pt    0.46684   0.26786   0.29985   0.00000  Uiso   1.00
Pt1683 Pt    0.26786   0.53316   0.29985   0.00000  Uiso   1.00
Pt1684 Pt    0.53316   0.26786   0.29985   0.00000  Uiso   1.00
Pt1685 Pt    0.66581   0.66581   0.29985   0.00000  Uiso   1.00
Pt1686 Pt    0.46684   0.73214   0.29985   0.00000  Uiso   1.00
Pt1687 Pt    0.73214   0.46684   0.29985   0.00000  Uiso   1.00
Pt1688 Pt    0.73214   0.53316   0.29985   0.00000  Uiso   1.00
Pt1689 Pt    0.53316   0.73214   0.29985   0.00000  Uiso   1.00
Pt1690 Pt    0.33419   0.69898   0.66727   0.00000  Uiso   1.00
Pt1691 Pt    0.69898   0.33419   0.66727   0.00000  Uiso   1.00
Pt1692 Pt    0.33419   0.69898   0.33273   0.00000  Uiso   1.00
Pt1693 Pt    0.69898   0.33419   0.33273   0.00000  Uiso   1.00
Pt1694 Pt    0.30102   0.33419   0.66727   0.00000  Uiso   1.00
Pt1695 Pt    0.33419   0.30102   0.66727   0.00000  Uiso   1.00
Pt1696 Pt    0.30102   0.33419   0.33273   0.00000  Uiso   1.00
Pt1697 Pt    0.33419   0.30102   0.33273   0.00000  Uiso   1.00
Pt1698 Pt    0.69898   0.66581   0.66727   0.00000  Uiso   1.00
Pt1699 Pt    0.66581   0.69898   0.66727   0.00000  Uiso   1.00
Pt1700 Pt    0.66581   0.69898   0.33273   0.00000  Uiso   1.00
Pt1701 Pt    0.69898   0.66581   0.33273   0.00000  Uiso   1.00
Pt1702 Pt    0.30102   0.66581   0.66727   0.00000  Uiso   1.00
Pt1703 Pt    0.66581   0.30102   0.66727   0.00000  Uiso   1.00
Pt1704 Pt    0.30102   0.66581   0.33273   0.00000  Uiso   1.00
Pt1705 Pt    0.66581   0.30102   0.33273   0.00000  Uiso   1.00
Pt1706 Pt    0.46684   0.56633   0.80070   0.00000  Uiso   1.00
Pt1707 Pt    0.56633   0.46684   0.80070   0.00000  Uiso   1.00
Pt1708 Pt    0.56633   0.53316   0.80070   0.00000  Uiso   1.00
Pt1709 Pt    0.53316   0.56633   0.80070   0.00000  Uiso   1.00
Pt1710 Pt    0.46684   0.56633   0.19930   0.00000  Uiso   1.00
Pt1711 Pt    0.56633   0.46684   0.19930   0.00000  Uiso   1.00
Pt1712 Pt    0.56633   0.53316   0.19930   0.00000  Uiso   1.00
Pt1713 Pt    0.53316   0.56633   0.19930   0.00000  Uiso   1.00
Pt1714 Pt    0.43367   0.46684   0.80070   0.00000  Uiso   1.00
Pt1715 Pt    0.46684   0.43367   0.80070   0.00000  Uiso   1.00
Pt1716 Pt    0.43367   0.53316   0.80070   0.00000  Uiso   1.00
Pt1717 Pt    0.53316   0.43367   0.80070   0.00000  Uiso   1.00
Pt1718 Pt    0.46684   0.43367   0.19930   0.00000  Uiso   1.00
Pt1719 Pt    0.43367   0.46684   0.19930   0.00000  Uiso   1.00
Pt1720 Pt    0.43367   0.53316   0.19930   0.00000  Uiso   1.00
Pt1721 Pt    0.53316   0.43367   0.19930   0.00000  Uiso   1.00
Pt1722 Pt    0.69898   0.69898   0.36657   0.00000  Uiso   1.00
Pt1723 Pt    0.30102   0.69898   0.36657   0.00000  Uiso   1.00
Pt1724 Pt    0.69898   0.30102   0.36657   0.00000  Uiso   1.00
Pt1725 Pt    0.30102   0.30102   0.36657   0.00000  Uiso   1.00
Pt1726 Pt    0.69898   0.69898   0.63343   0.00000  Uiso   1.00
Pt1727 Pt    0.30102   0.69898   0.63343   0.00000  Uiso   1.00
Pt1728 Pt    0.69898   0.30102   0.63343   0.00000  Uiso   1.00
Pt1729 Pt    0.30102   0.30102   0.63343   0.00000  Uiso   1.00
Pt1730 Pt    0.69898   0.63265   0.70015   0.00000  Uiso   1.00
Pt1731 Pt    0.63265   0.69898   0.70015   0.00000  Uiso   1.00
Pt1732 Pt    0.30102   0.63265   0.70015   0.00000  Uiso   1.00
Pt1733 Pt    0.63265   0.30102   0.70015   0.00000  Uiso   1.00
Pt1734 Pt    0.69898   0.36735   0.70015   0.00000  Uiso   1.00
Pt1735 Pt    0.36735   0.69898   0.70015   0.00000  Uiso   1.00
Pt1736 Pt    0.36735   0.30102   0.70015   0.00000  Uiso   1.00
Pt1737 Pt    0.30102   0.36735   0.70015   0.00000  Uiso   1.00
Pt1738 Pt    0.63265   0.69898   0.29985   0.00000  Uiso   1.00
Pt1739 Pt    0.69898   0.63265   0.29985   0.00000  Uiso   1.00
Pt1740 Pt    0.30102   0.63265   0.29985   0.00000  Uiso   1.00
Pt1741 Pt    0.63265   0.30102   0.29985   0.00000  Uiso   1.00
Pt1742 Pt    0.36735   0.69898   0.29985   0.00000  Uiso   1.00
Pt1743 Pt    0.69898   0.36735   0.29985   0.00000  Uiso   1.00
Pt1744 Pt    0.30102   0.36735   0.29985   0.00000  Uiso   1.00
Pt1745 Pt    0.36735   0.30102   0.29985   0.00000  Uiso   1.00
Pt1746 Pt    0.20154   0.40051   0.50000   0.00000  Uiso   1.00
Pt1747 Pt    0.40051   0.20154   0.50000   0.00000  Uiso   1.00
Pt1748 Pt    0.20154   0.59949   0.50000   0.00000  Uiso   1.00
Pt1749 Pt    0.59949   0.20154   0.50000   0.00000  Uiso   1.00
Pt1750 Pt    0.40051   0.79846   0.50000   0.00000  Uiso   1.00
Pt1751 Pt    0.79846   0.40051   0.50000   0.00000  Uiso   1.00
Pt1752 Pt    0.59949   0.79846   0.50000   0.00000  Uiso   1.00
Pt1753 Pt    0.79846   0.59949   0.50000   0.00000  Uiso   1.00
Pt1754 Pt    0.20154   0.50000   0.59960   0.00000  Uiso   1.00
Pt1755 Pt    0.50000   0.20154   0.59960   0.00000  Uiso   1.00
Pt1756 Pt    0.20154   0.50000   0.40040   0.00000  Uiso   1.00
Pt1757 Pt    0.50000   0.20154   0.40040   0.00000  Uiso   1.00
Pt1758 Pt    0.50000   0.79846   0.59960   0.00000  Uiso   1.00
Pt1759 Pt    0.79846   0.50000   0.59960   0.00000  Uiso   1.00
Pt1760 Pt    0.50000   0.79846   0.40040   0.00000  Uiso   1.00
Pt1761 Pt    0.79846   0.50000   0.40040   0.00000  Uiso   1.00
Pt1762 Pt    0.33419   0.76530   0.53383   0.00000  Uiso   1.00
Pt1763 Pt    0.76530   0.33419   0.53383   0.00000  Uiso   1.00
Pt1764 Pt    0.33419   0.76530   0.46617   0.00000  Uiso   1.00
Pt1765 Pt    0.76530   0.33419   0.46617   0.00000  Uiso   1.00
Pt1766 Pt    0.66581   0.76530   0.53383   0.00000  Uiso   1.00
Pt1767 Pt    0.76530   0.66581   0.53383   0.00000  Uiso   1.00
Pt1768 Pt    0.76530   0.66581   0.46617   0.00000  Uiso   1.00
Pt1769 Pt    0.66581   0.76530   0.46617   0.00000  Uiso   1.00
Pt1770 Pt    0.33419   0.23470   0.53383   0.00000  Uiso   1.00
Pt1771 Pt    0.23470   0.33419   0.53383   0.00000  Uiso   1.00
Pt1772 Pt    0.23470   0.33419   0.46617   0.00000  Uiso   1.00
Pt1773 Pt    0.33419   0.23470   0.46617   0.00000  Uiso   1.00
Pt1774 Pt    0.23470   0.66581   0.53383   0.00000  Uiso   1.00
Pt1775 Pt    0.66581   0.23470   0.53383   0.00000  Uiso   1.00
Pt1776 Pt    0.23470   0.66581   0.46617   0.00000  Uiso   1.00
Pt1777 Pt    0.66581   0.23470   0.46617   0.00000  Uiso   1.00
Pt1778 Pt    0.26786   0.33419   0.36657   0.00000  Uiso   1.00
Pt1779 Pt    0.33419   0.26786   0.36657   0.00000  Uiso   1.00
Pt1780 Pt    0.26786   0.33419   0.63343   0.00000  Uiso   1.00
Pt1781 Pt    0.33419   0.26786   0.63343   0.00000  Uiso   1.00
Pt1782 Pt    0.26786   0.66581   0.36657   0.00000  Uiso   1.00
Pt1783 Pt    0.66581   0.26786   0.36657   0.00000  Uiso   1.00
Pt1784 Pt    0.33419   0.73214   0.36657   0.00000  Uiso   1.00
Pt1785 Pt    0.73214   0.33419   0.36657   0.00000  Uiso   1.00
Pt1786 Pt    0.26786   0.66581   0.63343   0.00000  Uiso   1.00
Pt1787 Pt    0.66581   0.26786   0.63343   0.00000  Uiso   1.00
Pt1788 Pt    0.73214   0.33419   0.63343   0.00000  Uiso   1.00
Pt1789 Pt    0.33419   0.73214   0.63343   0.00000  Uiso   1.00
Pt1790 Pt    0.66581   0.73214   0.36657   0.00000  Uiso   1.00
Pt1791 Pt    0.73214   0.66581   0.36657   0.00000  Uiso   1.00
Pt1792 Pt    0.66581   0.73214   0.63343   0.00000  Uiso   1.00
Pt1793 Pt    0.73214   0.66581   0.63343   0.00000  Uiso   1.00
Pt1794 Pt    0.33419   0.63265   0.73304   0.00000  Uiso   1.00
Pt1795 Pt    0.63265   0.33419   0.73304   0.00000  Uiso   1.00
Pt1796 Pt    0.33419   0.63265   0.26696   0.00000  Uiso   1.00
Pt1797 Pt    0.63265   0.33419   0.26696   0.00000  Uiso   1.00
Pt1798 Pt    0.63265   0.66581   0.73304   0.00000  Uiso   1.00
Pt1799 Pt    0.66581   0.63265   0.73304   0.00000  Uiso   1.00
Pt1800 Pt    0.33419   0.36735   0.73304   0.00000  Uiso   1.00
Pt1801 Pt    0.36735   0.33419   0.73304   0.00000  Uiso   1.00
Pt1802 Pt    0.63265   0.66581   0.26696   0.00000  Uiso   1.00
Pt1803 Pt    0.66581   0.63265   0.26696   0.00000  Uiso   1.00
Pt1804 Pt    0.33419   0.36735   0.26696   0.00000  Uiso   1.00
Pt1805 Pt    0.36735   0.33419   0.26696   0.00000  Uiso   1.00
Pt1806 Pt    0.36735   0.66581   0.73304   0.00000  Uiso   1.00
Pt1807 Pt    0.66581   0.36735   0.73304   0.00000  Uiso   1.00
Pt1808 Pt    0.36735   0.66581   0.26696   0.00000  Uiso   1.00
Pt1809 Pt    0.66581   0.36735   0.26696   0.00000  Uiso   1.00
Pt1810 Pt    0.26786   0.63265   0.66727   0.00000  Uiso   1.00
Pt1811 Pt    0.63265   0.26786   0.66727   0.00000  Uiso   1.00
Pt1812 Pt    0.46684   0.76530   0.66727   0.00000  Uiso   1.00
Pt1813 Pt    0.76530   0.46684   0.66727   0.00000  Uiso   1.00
Pt1814 Pt    0.26786   0.63265   0.33273   0.00000  Uiso   1.00
Pt1815 Pt    0.63265   0.26786   0.33273   0.00000  Uiso   1.00
Pt1816 Pt    0.46684   0.76530   0.33273   0.00000  Uiso   1.00
Pt1817 Pt    0.76530   0.46684   0.33273   0.00000  Uiso   1.00
Pt1818 Pt    0.53316   0.76530   0.66727   0.00000  Uiso   1.00
Pt1819 Pt    0.76530   0.53316   0.66727   0.00000  Uiso   1.00
Pt1820 Pt    0.53316   0.76530   0.33273   0.00000  Uiso   1.00
Pt1821 Pt    0.76530   0.53316   0.33273   0.00000  Uiso   1.00
Pt1822 Pt    0.36735   0.26786   0.66727   0.00000  Uiso   1.00
Pt1823 Pt    0.26786   0.36735   0.66727   0.00000  Uiso   1.00
Pt1824 Pt    0.26786   0.36735   0.33273   0.00000  Uiso   1.00
Pt1825 Pt    0.36735   0.26786   0.33273   0.00000  Uiso   1.00
Pt1826 Pt    0.73214   0.63265   0.66727   0.00000  Uiso   1.00
Pt1827 Pt    0.63265   0.73214   0.66727   0.00000  Uiso   1.00
Pt1828 Pt    0.63265   0.73214   0.33273   0.00000  Uiso   1.00
Pt1829 Pt    0.73214   0.63265   0.33273   0.00000  Uiso   1.00
Pt1830 Pt    0.23470   0.46684   0.66727   0.00000  Uiso   1.00
Pt1831 Pt    0.46684   0.23470   0.66727   0.00000  Uiso   1.00
Pt1832 Pt    0.23470   0.46684   0.33273   0.00000  Uiso   1.00
Pt1833 Pt    0.46684   0.23470   0.33273   0.00000  Uiso   1.00
Pt1834 Pt    0.23470   0.53316   0.66727   0.00000  Uiso   1.00
Pt1835 Pt    0.53316   0.23470   0.66727   0.00000  Uiso   1.00
Pt1836 Pt    0.36735   0.73214   0.66727   0.00000  Uiso   1.00
Pt1837 Pt    0.73214   0.36735   0.66727   0.00000  Uiso   1.00
Pt1838 Pt    0.23470   0.53316   0.33273   0.00000  Uiso   1.00
Pt1839 Pt    0.53316   0.23470   0.33273   0.00000  Uiso   1.00
Pt1840 Pt    0.36735   0.73214   0.33273   0.00000  Uiso   1.00
Pt1841 Pt    0.73214   0.36735   0.33273   0.00000  Uiso   1.00
Au1842 Au    0.33419   0.46684   0.23313   0.00000  Uiso   1.00
Au1843 Au    0.46684   0.33419   0.23313   0.00000  Uiso   1.00
Au1844 Au    0.33419   0.53316   0.23313   0.00000  Uiso   1.00
Au1845 Au    0.53316   0.33419   0.23313   0.00000  Uiso   1.00
Au1846 Au    0.46684   0.66581   0.23313   0.00000  Uiso   1.00
Au1847 Au    0.66581   0.46684   0.23313   0.00000  Uiso   1.00
Au1848 Au    0.53316   0.66581   0.23313   0.00000  Uiso   1.00
Au1849 Au    0.66581   0.53316   0.23313   0.00000  Uiso   1.00
Au1850 Au    0.33419   0.46684   0.76687   0.00000  Uiso   1.00
Au1851 Au    0.46684   0.33419   0.76687   0.00000  Uiso   1.00
Au1852 Au    0.53316   0.33419   0.76687   0.00000  Uiso   1.00
Au1853 Au    0.33419   0.53316   0.76687   0.00000  Uiso   1.00
Au1854 Au    0.46684   0.66581   0.76687   0.00000  Uiso   1.00
Au1855 Au    0.66581   0.46684   0.76687   0.00000  Uiso   1.00
Au1856 Au    0.53316   0.66581   0.76687   0.00000  Uiso   1.00
Au1857 Au    0.66581   0.53316   0.76687   0.00000  Uiso   1.00
Au1858 Au    0.40051   0.50000   0.80070   0.00000  Uiso   1.00
Au1859 Au    0.50000   0.40051   0.80070   0.00000  Uiso   1.00
Au1860 Au    0.40051   0.50000   0.19930   0.00000  Uiso   1.00
Au1861 Au    0.50000   0.40051   0.19930   0.00000  Uiso   1.00
Au1862 Au    0.50000   0.59949   0.80070   0.00000  Uiso   1.00
Au1863 Au    0.59949   0.50000   0.80070   0.00000  Uiso   1.00
Au1864 Au    0.50000   0.59949   0.19930   0.00000  Uiso   1.00
Au1865 Au    0.59949   0.50000   0.19930   0.00000  Uiso   1.00
Au1866 Au    0.20154   0.56633   0.59960   0.00000  Uiso   1.00
Au1867 Au    0.56633   0.20154   0.59960   0.00000  Uiso   1.00
Au1868 Au    0.20154   0.56633   0.40040   0.00000  Uiso   1.00
Au1869 Au    0.56633   0.20154   0.40040   0.00000  Uiso   1.00
Au1870 Au    0.43367   0.20154   0.59960   0.00000  Uiso   1.00
Au1871 Au    0.20154   0.43367   0.59960   0.00000  Uiso   1.00
Au1872 Au    0.20154   0.43367   0.40040   0.00000  Uiso   1.00
Au1873 Au    0.43367   0.20154   0.40040   0.00000  Uiso   1.00
Au1874 Au    0.26786   0.69898   0.59960   0.00000  Uiso   1.00
Au1875 Au    0.69898   0.26786   0.59960   0.00000  Uiso   1.00
Au1876 Au    0.26786   0.69898   0.40040   0.00000  Uiso   1.00
Au1877 Au    0.69898   0.26786   0.40040   0.00000  Uiso   1.00
Au1878 Au    0.30102   0.26786   0.59960   0.00000  Uiso   1.00
Au1879 Au    0.26786   0.30102   0.59960   0.00000  Uiso   1.00
Au1880 Au    0.26786   0.30102   0.40040   0.00000  Uiso   1.00
Au1881 Au    0.30102   0.26786   0.40040   0.00000  Uiso   1.00
Au1882 Au    0.56633   0.79846   0.59960   0.00000  Uiso   1.00
Au1883 Au    0.79846   0.56633   0.59960   0.00000  Uiso   1.00
Au1884 Au    0.56633   0.79846   0.40040   0.00000  Uiso   1.00
Au1885 Au    0.79846   0.56633   0.40040   0.00000  Uiso   1.00
Au1886 Au    0.73214   0.69898   0.59960   0.00000  Uiso   1.00
Au1887 Au    0.69898   0.73214   0.59960   0.00000  Uiso   1.00
Au1888 Au    0.73214   0.69898   0.40040   0.00000  Uiso   1.00
Au1889 Au    0.69898   0.73214   0.40040   0.00000  Uiso   1.00
Au1890 Au    0.43367   0.79846   0.59960   0.00000  Uiso   1.00
Au1891 Au    0.79846   0.43367   0.59960   0.00000  Uiso   1.00
Au1892 Au    0.43367   0.79846   0.40040   0.00000  Uiso   1.00
Au1893 Au    0.79846   0.43367   0.40040   0.00000  Uiso   1.00
Au1894 Au    0.30102   0.73214   0.59960   0.00000  Uiso   1.00
Au1895 Au    0.73214   0.30102   0.59960   0.00000  Uiso   1.00
Au1896 Au    0.30102   0.73214   0.40040   0.00000  Uiso   1.00
Au1897 Au    0.73214   0.30102   0.40040   0.00000  Uiso   1.00
Au1898 Au    0.40051   0.20154   0.56672   0.00000  Uiso   1.00
Au1899 Au    0.20154   0.40051   0.56672   0.00000  Uiso   1.00
Au1900 Au    0.40051   0.20154   0.43328   0.00000  Uiso   1.00
Au1901 Au    0.20154   0.40051   0.43328   0.00000  Uiso   1.00
Au1902 Au    0.20154   0.59949   0.56672   0.00000  Uiso   1.00
Au1903 Au    0.59949   0.20154   0.56672   0.00000  Uiso   1.00
Au1904 Au    0.20154   0.59949   0.43328   0.00000  Uiso   1.00
Au1905 Au    0.59949   0.20154   0.43328   0.00000  Uiso   1.00
Au1906 Au    0.40051   0.79846   0.56672   0.00000  Uiso   1.00
Au1907 Au    0.79846   0.40051   0.56672   0.00000  Uiso   1.00
Au1908 Au    0.40051   0.79846   0.43328   0.00000  Uiso   1.00
Au1909 Au    0.79846   0.40051   0.43328   0.00000  Uiso   1.00
Au1910 Au    0.59949   0.79846   0.56672   0.00000  Uiso   1.00
Au1911 Au    0.79846   0.59949   0.56672   0.00000  Uiso   1.00
Au1912 Au    0.59949   0.79846   0.43328   0.00000  Uiso   1.00
Au1913 Au    0.79846   0.59949   0.43328   0.00000  Uiso   1.00
Au1914 Au    0.40051   0.69898   0.73304   0.00000  Uiso   1.00
Au1915 Au    0.69898   0.40051   0.73304   0.00000  Uiso   1.00
Au1916 Au    0.40051   0.69898   0.26696   0.00000  Uiso   1.00
Au1917 Au    0.69898   0.40051   0.26696   0.00000  Uiso   1.00
Au1918 Au    0.30102   0.40051   0.73304   0.00000  Uiso   1.00
Au1919 Au    0.40051   0.30102   0.73304   0.00000  Uiso   1.00
Au1920 Au    0.40051   0.30102   0.26696   0.00000  Uiso   1.00
Au1921 Au    0.30102   0.40051   0.26696   0.00000  Uiso   1.00
Au1922 Au    0.59949   0.69898   0.73304   0.00000  Uiso   1.00
Au1923 Au    0.69898   0.59949   0.73304   0.00000  Uiso   1.00
Au1924 Au    0.69898   0.59949   0.26696   0.00000  Uiso   1.00
Au1925 Au    0.59949   0.69898   0.26696   0.00000  Uiso   1.00
Au1926 Au    0.30102   0.59949   0.73304   0.00000  Uiso   1.00
Au1927 Au    0.59949   0.30102   0.73304   0.00000  Uiso   1.00
Au1928 Au    0.30102   0.59949   0.26696   0.00000  Uiso   1.00
Au1929 Au    0.59949   0.30102   0.26696   0.00000  Uiso   1.00
Au1930 Au    0.40051   0.26786   0.70015   0.00000  Uiso   1.00
Au1931 Au    0.26786   0.40051   0.70015   0.00000  Uiso   1.00
Au1932 Au    0.26786   0.59949   0.70015   0.00000  Uiso   1.00
Au1933 Au    0.59949   0.26786   0.70015   0.00000  Uiso   1.00
Au1934 Au    0.40051   0.73214   0.70015   0.00000  Uiso   1.00
Au1935 Au    0.73214   0.40051   0.70015   0.00000  Uiso   1.00
Au1936 Au    0.40051   0.26786   0.29985   0.00000  Uiso   1.00
Au1937 Au    0.26786   0.40051   0.29985   0.00000  Uiso   1.00
Au1938 Au    0.59949   0.73214   0.70015   0.00000  Uiso   1.00
Au1939 Au    0.73214   0.59949   0.70015   0.00000  Uiso   1.00
Au1940 Au    0.26786   0.59949   0.29985   0.00000  Uiso   1.00
Au1941 Au    0.59949   0.26786   0.29985   0.00000  Uiso   1.00
Au1942 Au    0.40051   0.73214   0.29985   0.00000  Uiso   1.00
Au1943 Au    0.73214   0.40051   0.29985   0.00000  Uiso   1.00
Au1944 Au    0.59949   0.73214   0.29985   0.00000  Uiso   1.00
Au1945 Au    0.73214   0.59949   0.29985   0.00000  Uiso   1.00
Au1946 Au    0.40051   0.56633   0.80070   0.00000  Uiso   1.00
Au1947 Au    0.56633   0.40051   0.80070   0.00000  Uiso   1.00
Au1948 Au    0.40051   0.56633   0.19930   0.00000  Uiso   1.00
Au1949 Au    0.56633   0.40051   0.19930   0.00000  Uiso   1.00
Au1950 Au    0.43367   0.40051   0.80070   0.00000  Uiso   1.00
Au1951 Au    0.40051   0.43367   0.80070   0.00000  Uiso   1.00
Au1952 Au    0.56633   0.59949   0.80070   0.00000  Uiso   1.00
Au1953 Au    0.59949   0.56633   0.80070   0.00000  Uiso   1.00
Au1954 Au    0.40051   0.43367   0.19930   0.00000  Uiso   1.00
Au1955 Au    0.43367   0.40051   0.19930   0.00000  Uiso   1.00
Au1956 Au    0.56633   0.59949   0.19930   0.00000  Uiso   1.00
Au1957 Au    0.59949   0.56633   0.19930   0.00000  Uiso   1.00
Au1958 Au    0.43367   0.59949   0.80070   0.00000  Uiso   1.00
Au1959 Au    0.59949   0.43367   0.80070   0.00000  Uiso   1.00
Au1960 Au    0.43367   0.59949   0.19930   0.00000  Uiso   1.00
Au1961 Au    0.59949   0.43367   0.19930   0.00000  Uiso   1.00
Au1962 Au    0.63265   0.76530   0.36657   0.00000  Uiso   1.00
Au1963 Au    0.76530   0.63265   0.36657   0.00000  Uiso   1.00
Au1964 Au    0.63265   0.76530   0.63343   0.00000  Uiso   1.00
Au1965 Au    0.76530   0.63265   0.63343   0.00000  Uiso   1.00
Au1966 Au    0.36735   0.76530   0.36657   0.00000  Uiso   1.00
Au1967 Au    0.76530   0.36735   0.36657   0.00000  Uiso   1.00
Au1968 Au    0.36735   0.76530   0.63343   0.00000  Uiso   1.00
Au1969 Au    0.76530   0.36735   0.63343   0.00000  Uiso   1.00
Au1970 Au    0.23470   0.63265   0.36657   0.00000  Uiso   1.00
Au1971 Au    0.63265   0.23470   0.36657   0.00000  Uiso   1.00
Au1972 Au    0.23470   0.63265   0.63343   0.00000  Uiso   1.00
Au1973 Au    0.63265   0.23470   0.63343   0.00000  Uiso   1.00
Au1974 Au    0.36735   0.23470   0.36657   0.00000  Uiso   1.00
Au1975 Au    0.23470   0.36735   0.36657   0.00000  Uiso   1.00
Au1976 Au    0.36735   0.23470   0.63343   0.00000  Uiso   1.00
Au1977 Au    0.23470   0.36735   0.63343   0.00000  Uiso   1.00
Au1978 Au    0.63265   0.63265   0.23313   0.00000  Uiso   1.00
Au1979 Au    0.63265   0.36735   0.23313   0.00000  Uiso   1.00
Au1980 Au    0.36735   0.63265   0.23313   0.00000  Uiso   1.00
Au1981 Au    0.63265   0.63265   0.76687   0.00000  Uiso   1.00
Au1982 Au    0.36735   0.36735   0.23313   0.00000  Uiso   1.00
Au1983 Au    0.36735   0.63265   0.76687   0.00000  Uiso   1.00
Au1984 Au    0.63265   0.36735   0.76687   0.00000  Uiso   1.00
Au1985 Au    0.36735   0.36735   0.76687   0.00000  Uiso   1.00
Au1986 Au    0.26786   0.26786   0.50000   0.00000  Uiso   1.00
Au1987 Au    0.26786   0.73214   0.50000   0.00000  Uiso   1.00
Au1988 Au    0.73214   0.26786   0.50000   0.00000  Uiso   1.00
Au1989 Au    0.73214   0.73214   0.50000   0.00000  Uiso   1.00
Au1990 Au    0.33419   0.76530   0.59960   0.00000  Uiso   1.00
Au1991 Au    0.76530   0.33419   0.59960   0.00000  Uiso   1.00
Au1992 Au    0.33419   0.76530   0.40040   0.00000  Uiso   1.00
Au1993 Au    0.76530   0.33419   0.40040   0.00000  Uiso   1.00
Au1994 Au    0.76530   0.66581   0.59960   0.00000  Uiso   1.00
Au1995 Au    0.66581   0.76530   0.59960   0.00000  Uiso   1.00
Au1996 Au    0.66581   0.76530   0.40040   0.00000  Uiso   1.00
Au1997 Au    0.76530   0.66581   0.40040   0.00000  Uiso   1.00
Au1998 Au    0.23470   0.33419   0.59960   0.00000  Uiso   1.00
Au1999 Au    0.33419   0.23470   0.59960   0.00000  Uiso   1.00
Au2000 Au    0.33419   0.23470   0.40040   0.00000  Uiso   1.00
Au2001 Au    0.23470   0.33419   0.40040   0.00000  Uiso   1.00
Au2002 Au    0.23470   0.66581   0.59960   0.00000  Uiso   1.00
Au2003 Au    0.66581   0.23470   0.59960   0.00000  Uiso   1.00
Au2004 Au    0.23470   0.66581   0.40040   0.00000  Uiso   1.00
Au2005 Au    0.66581   0.23470   0.40040   0.00000  Uiso   1.00
Au2006 Au    0.20154   0.63265   0.53383   0.00000  Uiso   1.00
Au2007 Au    0.63265   0.20154   0.53383   0.00000  Uiso   1.00
Au2008 Au    0.20154   0.63265   0.46617   0.00000  Uiso   1.00
Au2009 Au    0.63265   0.20154   0.46617   0.00000  Uiso   1.00
Au2010 Au    0.36735   0.20154   0.53383   0.00000  Uiso   1.00
Au2011 Au    0.20154   0.36735   0.53383   0.00000  Uiso   1.00
Au2012 Au    0.36735   0.20154   0.46617   0.00000  Uiso   1.00
Au2013 Au    0.20154   0.36735   0.46617   0.00000  Uiso   1.00
Au2014 Au    0.63265   0.79846   0.53383   0.00000  Uiso   1.00
Au2015 Au    0.79846   0.63265   0.53383   0.00000  Uiso   1.00
Au2016 Au    0.63265   0.79846   0.46617   0.00000  Uiso   1.00
Au2017 Au    0.79846   0.63265   0.46617   0.00000  Uiso   1.00
Au2018 Au    0.36735   0.79846   0.53383   0.00000  Uiso   1.00
Au2019 Au    0.79846   0.36735   0.53383   0.00000  Uiso   1.00
Au2020 Au    0.36735   0.79846   0.46617   0.00000  Uiso   1.00
Au2021 Au    0.79846   0.36735   0.46617   0.00000  Uiso   1.00
Au2022 Au    0.20154   0.46684   0.36657   0.00000  Uiso   1.00
Au2023 Au    0.46684   0.20154   0.36657   0.00000  Uiso   1.00
Au2024 Au    0.20154   0.53316   0.36657   0.00000  Uiso   1.00
Au2025 Au    0.53316   0.20154   0.36657   0.00000  Uiso   1.00
Au2026 Au    0.20154   0.46684   0.63343   0.00000  Uiso   1.00
Au2027 Au    0.46684   0.20154   0.63343   0.00000  Uiso   1.00
Au2028 Au    0.20154   0.53316   0.63343   0.00000  Uiso   1.00
Au2029 Au    0.53316   0.20154   0.63343   0.00000  Uiso   1.00
Au2030 Au    0.46684   0.79846   0.36657   0.00000  Uiso   1.00
Au2031 Au    0.79846   0.46684   0.36657   0.00000  Uiso   1.00
Au2032 Au    0.53316   0.79846   0.36657   0.00000  Uiso   1.00
Au2033 Au    0.79846   0.53316   0.36657   0.00000  Uiso   1.00
Au2034 Au    0.46684   0.79846   0.63343   0.00000  Uiso   1.00
Au2035 Au    0.79846   0.46684   0.63343   0.00000  Uiso   1.00
Au2036 Au    0.53316   0.79846   0.63343   0.00000  Uiso   1.00
Au2037 Au    0.79846   0.53316   0.63343   0.00000  Uiso   1.00
Au2038 Au    0.26786   0.50000   0.73304   0.00000  Uiso   1.00
Au2039 Au    0.50000   0.26786   0.73304   0.00000  Uiso   1.00
Au2040 Au    0.50000   0.26786   0.26696   0.00000  Uiso   1.00
Au2041 Au    0.26786   0.50000   0.26696   0.00000  Uiso   1.00
Au2042 Au    0.50000   0.73214   0.73304   0.00000  Uiso   1.00
Au2043 Au    0.73214   0.50000   0.73304   0.00000  Uiso   1.00
Au2044 Au    0.50000   0.73214   0.26696   0.00000  Uiso   1.00
Au2045 Au    0.73214   0.50000   0.26696   0.00000  Uiso   1.00
Au2046 Au    0.40051   0.76530   0.66727   0.00000  Uiso   1.00
Au2047 Au    0.76530   0.40051   0.66727   0.00000  Uiso   1.00
Au2048 Au    0.40051   0.76530   0.33273   0.00000  Uiso   1.00
Au2049 Au    0.76530   0.40051   0.33273   0.00000  Uiso   1.00
Au2050 Au    0.59949   0.76530   0.66727   0.00000  Uiso   1.00
Au2051 Au    0.76530   0.59949   0.66727   0.00000  Uiso   1.00
Au2052 Au    0.59949   0.76530   0.33273   0.00000  Uiso   1.00
Au2053 Au    0.76530   0.59949   0.33273   0.00000  Uiso   1.00
Au2054 Au    0.23470   0.40051   0.66727   0.00000  Uiso   1.00
Au2055 Au    0.40051   0.23470   0.66727   0.00000  Uiso   1.00
Au2056 Au    0.23470   0.40051   0.33273   0.00000  Uiso   1.00
Au2057 Au    0.40051   0.23470   0.33273   0.00000  Uiso   1.00
Au2058 Au    0.23470   0.59949   0.66727   0.00000  Uiso   1.00
Au2059 Au    0.59949   0.23470   0.66727   0.00000  Uiso   1.00
Au2060 Au    0.23470   0.59949   0.33273   0.00000  Uiso   1.00
Au2061 Au    0.59949   0.23470   0.33273   0.00000  Uiso   1.00
Au2062 Au    0.40051   0.33419   0.23313   0.00000  Uiso   1.00
Au2063 Au    0.33419   0.40051   0.23313   0.00000  Uiso   1.00
Au2064 Au    0.33419   0.59949   0.23313   0.00000  Uiso   1.00
Au2065 Au    0.59949   0.33419   0.23313   0.00000  Uiso   1.00
Au2066 Au    0.40051   0.66581   0.23313   0.00000  Uiso   1.00
Au2067 Au    0.66581   0.40051   0.23313   0.00000  Uiso   1.00
Au2068 Au    0.59949   0.66581   0.23313   0.00000  Uiso   1.00
Au2069 Au    0.66581   0.59949   0.23313   0.00000  Uiso   1.00
Au2070 Au    0.33419   0.40051   0.76687   0.00000  Uiso   1.00
Au2071 Au    0.40051   0.33419   0.76687   0.00000  Uiso   1.00
Au2072 Au    0.59949   0.33419   0.76687   0.00000  Uiso   1.00
Au2073 Au    0.33419   0.59949   0.76687   0.00000  Uiso   1.00
Au2074 Au    0.40051   0.66581   0.76687   0.00000  Uiso   1.00
Au2075 Au    0.66581   0.40051   0.76687   0.00000  Uiso   1.00
Au2076 Au    0.59949   0.66581   0.76687   0.00000  Uiso   1.00
Au2077 Au    0.66581   0.59949   0.76687   0.00000  Uiso   1.00
Au2078 Au    0.46684   0.63265   0.80070   0.00000  Uiso   1.00
Au2079 Au    0.63265   0.46684   0.80070   0.00000  Uiso   1.00
Au2080 Au    0.53316   0.63265   0.80070   0.00000  Uiso   1.00
Au2081 Au    0.63265   0.53316   0.80070   0.00000  Uiso   1.00
Au2082 Au    0.63265   0.46684   0.19930   0.00000  Uiso   1.00
Au2083 Au    0.46684   0.63265   0.19930   0.00000  Uiso   1.00
Au2084 Au    0.53316   0.63265   0.19930   0.00000  Uiso   1.00
Au2085 Au    0.63265   0.53316   0.19930   0.00000  Uiso   1.00
Au2086 Au    0.46684   0.36735   0.80070   0.00000  Uiso   1.00
Au2087 Au    0.36735   0.46684   0.80070   0.00000  Uiso   1.00
Au2088 Au    0.53316   0.36735   0.80070   0.00000  Uiso   1.00
Au2089 Au    0.36735   0.53316   0.80070   0.00000  Uiso   1.00
Au2090 Au    0.46684   0.36735   0.19930   0.00000  Uiso   1.00
Au2091 Au    0.36735   0.46684   0.19930   0.00000  Uiso   1.00
Au2092 Au    0.36735   0.53316   0.19930   0.00000  Uiso   1.00
Au2093 Au    0.53316   0.36735   0.19930   0.00000  Uiso   1.00
Au2094 Au    0.69898   0.76530   0.50000   0.00000  Uiso   1.00
Au2095 Au    0.76530   0.69898   0.50000   0.00000  Uiso   1.00
Au2096 Au    0.30102   0.76530   0.50000   0.00000  Uiso   1.00
Au2097 Au    0.76530   0.30102   0.50000   0.00000  Uiso   1.00
Au2098 Au    0.23470   0.69898   0.50000   0.00000  Uiso   1.00
Au2099 Au    0.69898   0.23470   0.50000   0.00000  Uiso   1.00
Au2100 Au    0.30102   0.23470   0.50000   0.00000  Uiso   1.00
Au2101 Au    0.23470   0.30102   0.50000   0.00000  Uiso   1.00
Au2102 Au    0.50000   0.76530   0.70015   0.00000  Uiso   1.00
Au2103 Au    0.76530   0.50000   0.70015   0.00000  Uiso   1.00
Au2104 Au    0.50000   0.76530   0.29985   0.00000  Uiso   1.00
Au2105 Au    0.76530   0.50000   0.29985   0.00000  Uiso   1.00
Au2106 Au    0.23470   0.50000   0.70015   0.00000  Uiso   1.00
Au2107 Au    0.50000   0.23470   0.70015   0.00000  Uiso   1.00
Au2108 Au    0.23470   0.50000   0.29985   0.00000  Uiso   1.00
Au2109 Au    0.50000   0.23470   0.29985   0.00000  Uiso   1.00
Au2110 Au    0.50000   0.69898   0.23313   0.00000  Uiso   1.00
Au2111 Au    0.69898   0.50000   0.23313   0.00000  Uiso   1.00
Au2112 Au    0.30102   0.50000   0.23313   0.00000  Uiso   1.00
Au2113 Au    0.50000   0.30102   0.23313   0.00000  Uiso   1.00
Au2114 Au    0.50000   0.69898   0.76687   0.00000  Uiso   1.00
Au2115 Au    0.69898   0.50000   0.76687   0.00000  Uiso   1.00
Au2116 Au    0.50000   0.30102   0.76687   0.00000  Uiso   1.00
Au2117 Au    0.30102   0.50000   0.76687   0.00000  Uiso   1.00
