# generated using pymatgen
data_Pt545Au342
_symmetry_space_group_name_H-M   'P 1'
_cell_length_a   45.00000000
_cell_length_b   45.00000000
_cell_length_c   45.00000000
_cell_angle_alpha   90.00000000
_cell_angle_beta   90.00000000
_cell_angle_gamma   90.00000000
_symmetry_Int_Tables_number   1
_chemical_formula_structural   Pt545Au342
_chemical_formula_sum   'Pt545 Au342'
_cell_volume   91125.00000000
_cell_formula_units_Z   1
loop_
 _symmetry_equiv_pos_site_id
 _symmetry_equiv_pos_as_xyz
  1  'x, y, z'
loop_
 _atom_site_type_symbol
 _atom_site_label
 _atom_site_symmetry_multiplicity
 _atom_site_fract_x
 _atom_site_fract_y
 _atom_site_fract_z
 _atom_site_occupancy
  Pt  Pt0  1  0.50000001  0.50000001  0.50000000  1
  Pt  Pt1  1  0.44523172  0.50000001  0.53139748  1
  Pt  Pt2  1  0.51838439  0.55159049  0.46860251  1
  Pt  Pt3  1  0.46361610  0.55159049  0.50000002  1
  Pt  Pt4  1  0.53638389  0.44840950  0.50000002  1
  Pt  Pt5  1  0.48161560  0.44840950  0.53139748  1
  Pt  Pt6  1  0.55476829  0.50000001  0.46860251  1
  Pt  Pt7  1  0.55476828  0.49999999  0.53206887  1
  Pt  Pt8  1  0.48161561  0.44840951  0.46793112  1
  Pt  Pt9  1  0.49999999  0.49999999  0.56346635  1
  Pt  Pt10  1  0.51838440  0.55159050  0.53206887  1
  Pt  Pt11  1  0.44523171  0.49999999  0.46793112  1
  Pt  Pt12  1  0.49999999  0.49999999  0.43653364  1
  Pt  Pt13  1  0.42684732  0.44840951  0.49932861  1
  Pt  Pt14  1  0.53638390  0.44840951  0.56346635  1
  Pt  Pt15  1  0.46361611  0.55159050  0.56346635  1
  Pt  Pt16  1  0.53638390  0.44840951  0.43653364  1
  Pt  Pt17  1  0.46361611  0.55159050  0.43653364  1
  Pt  Pt18  1  0.57315269  0.55159050  0.50067139  1
  Pt  Pt19  1  0.51799951  0.39681902  0.53139748  1
  Pt  Pt20  1  0.57315268  0.55159049  0.43720505  1
  Pt  Pt21  1  0.59115218  0.44840950  0.46860251  1
  Pt  Pt22  1  0.40884781  0.55159049  0.53139748  1
  Pt  Pt23  1  0.48200051  0.60318100  0.46860251  1
  Pt  Pt24  1  0.42684731  0.44840950  0.56279498  1
  Pt  Pt25  1  0.53676878  0.60318098  0.50067139  1
  Pt  Pt26  1  0.48200049  0.60318098  0.53206887  1
  Pt  Pt27  1  0.60953657  0.49999999  0.50067139  1
  Pt  Pt28  1  0.48161561  0.44840951  0.59486384  1
  Pt  Pt29  1  0.55476828  0.49999999  0.40513616  1
  Pt  Pt30  1  0.40884782  0.55159050  0.46793112  1
  Pt  Pt31  1  0.59115219  0.44840951  0.53206887  1
  Pt  Pt32  1  0.39046342  0.49999999  0.49932861  1
  Pt  Pt33  1  0.46323121  0.39681900  0.49932861  1
  Pt  Pt34  1  0.51799949  0.39681900  0.46793112  1
  Pt  Pt35  1  0.44523171  0.49999999  0.59486384  1
  Pt  Pt36  1  0.51838440  0.55159050  0.40513616  1
  Pt  Pt37  1  0.42684731  0.44840950  0.43586227  1
  Pt  Pt38  1  0.51838439  0.55159049  0.59553523  1
  Pt  Pt39  1  0.44523172  0.50000001  0.40446477  1
  Pt  Pt40  1  0.55476829  0.50000001  0.59553523  1
  Pt  Pt41  1  0.48161560  0.44840950  0.40446477  1
  Pt  Pt42  1  0.57315268  0.55159049  0.56413777  1
  Pt  Pt43  1  0.46323122  0.39681902  0.56279496  1
  Pt  Pt44  1  0.39046343  0.50000001  0.56279496  1
  Pt  Pt45  1  0.57276780  0.39681902  0.50000000  1
  Pt  Pt46  1  0.42723222  0.60318100  0.50000000  1
  Pt  Pt47  1  0.60953658  0.50000001  0.43720503  1
  Pt  Pt48  1  0.53676879  0.60318100  0.43720503  1
  Pt  Pt49  1  0.46323122  0.39681902  0.43586225  1
  Pt  Pt50  1  0.39046343  0.50000001  0.43586225  1
  Pt  Pt51  1  0.60953658  0.50000001  0.56413774  1
  Pt  Pt52  1  0.53676879  0.60318100  0.56413774  1
  Pt  Pt53  1  0.50000001  0.50000001  0.62693271  1
  Pt  Pt54  1  0.50000001  0.50000001  0.37306728  1
  Pt  Pt55  1  0.59153707  0.60318098  0.46927390  1
  Pt  Pt56  1  0.42723220  0.60318098  0.56346635  1
  Pt  Pt57  1  0.48200049  0.60318098  0.40513616  1
  Pt  Pt58  1  0.37207903  0.44840951  0.53072609  1
  Pt  Pt59  1  0.57276778  0.39681900  0.56346635  1
  Pt  Pt60  1  0.42723220  0.60318098  0.43653364  1
  Pt  Pt61  1  0.57276778  0.39681900  0.43653364  1
  Pt  Pt62  1  0.40884782  0.55159050  0.59486384  1
  Pt  Pt63  1  0.40846292  0.39681900  0.53072609  1
  Pt  Pt64  1  0.51799949  0.39681900  0.59486384  1
  Pt  Pt65  1  0.59115219  0.44840951  0.40513616  1
  Pt  Pt66  1  0.62792098  0.55159050  0.46927391  1
  Pt  Pt67  1  0.46361610  0.55159049  0.37306731  1
  Pt  Pt68  1  0.53638389  0.44840950  0.37306731  1
  Pt  Pt69  1  0.40846293  0.39681902  0.46725973  1
  Pt  Pt70  1  0.51799951  0.39681902  0.40446477  1
  Pt  Pt71  1  0.62792097  0.55159049  0.53274026  1
  Pt  Pt72  1  0.59115218  0.44840950  0.59553523  1
  Pt  Pt73  1  0.59153708  0.60318100  0.53274026  1
  Pt  Pt74  1  0.40884781  0.55159049  0.40446477  1
  Pt  Pt75  1  0.48200051  0.60318100  0.59553523  1
  Pt  Pt76  1  0.37207902  0.44840950  0.46725973  1
  Pt  Pt77  1  0.46361610  0.55159049  0.62693273  1
  Pt  Pt78  1  0.53638389  0.44840950  0.62693273  1
  Pt  Pt79  1  0.49961511  0.34522852  0.49932861  1
  Pt  Pt80  1  0.50038490  0.65477149  0.50067139  1
  Pt  Pt81  1  0.35407953  0.55159050  0.49932861  1
  Pt  Pt82  1  0.42684732  0.44840951  0.62626132  1
  Pt  Pt83  1  0.64592048  0.44840951  0.50067139  1
  Pt  Pt84  1  0.57315269  0.55159050  0.37373868  1
  Pt  Pt85  1  0.57315269  0.55159050  0.62760410  1
  Pt  Pt86  1  0.42684732  0.44840951  0.37239589  1
  Pt  Pt87  1  0.50038489  0.65477148  0.43720505  1
  Pt  Pt88  1  0.40846293  0.39681902  0.59419245  1
  Pt  Pt89  1  0.44561660  0.65477148  0.46860251  1
  Pt  Pt90  1  0.62753608  0.39681902  0.46860252  1
  Pt  Pt91  1  0.55438339  0.34522851  0.53139748  1
  Pt  Pt92  1  0.64592047  0.44840950  0.43720505  1
  Pt  Pt93  1  0.37246393  0.60318100  0.53139748  1
  Pt  Pt94  1  0.62792097  0.55159049  0.40580755  1
  Pt  Pt95  1  0.49961510  0.34522851  0.56279498  1
  Pt  Pt96  1  0.59153708  0.60318100  0.40580755  1
  Pt  Pt97  1  0.37207902  0.44840950  0.59419245  1
  Pt  Pt98  1  0.35407952  0.55159049  0.56279498  1
  Pt  Pt99  1  0.44484682  0.34522852  0.53072609  1
  Pt  Pt100  1  0.55438340  0.34522852  0.46793112  1
  Pt  Pt101  1  0.53676878  0.60318098  0.37373868  1
  Pt  Pt102  1  0.37246392  0.60318098  0.46793112  1
  Pt  Pt103  1  0.66430486  0.49999999  0.46927391  1
  Pt  Pt104  1  0.44561661  0.65477149  0.53206887  1
  Pt  Pt105  1  0.62753607  0.39681900  0.53206887  1
  Pt  Pt106  1  0.60953657  0.49999999  0.37373868  1
  Pt  Pt107  1  0.55515319  0.65477149  0.46927390  1
  Pt  Pt108  1  0.33569513  0.49999999  0.53072609  1
  Pt  Pt109  1  0.39046342  0.49999999  0.62626132  1
  Pt  Pt110  1  0.46323121  0.39681900  0.62626132  1
  Pt  Pt111  1  0.55515318  0.65477148  0.53274026  1
  Pt  Pt112  1  0.49961510  0.34522851  0.43586227  1
  Pt  Pt113  1  0.33569514  0.50000001  0.46725973  1
  Pt  Pt114  1  0.50038489  0.65477148  0.56413777  1
  Pt  Pt115  1  0.44523172  0.50000001  0.65833019  1
  Pt  Pt116  1  0.35407952  0.55159049  0.43586227  1
  Pt  Pt117  1  0.44484681  0.34522851  0.46725973  1
  Pt  Pt118  1  0.48161560  0.44840950  0.65833019  1
  Pt  Pt119  1  0.66430487  0.50000001  0.53274026  1
  Pt  Pt120  1  0.51838439  0.55159049  0.34166980  1
  Pt  Pt121  1  0.64592047  0.44840950  0.56413777  1
  Pt  Pt122  1  0.55476829  0.50000001  0.34166980  1
  Pt  Pt123  1  0.59153707  0.60318098  0.59620662  1
  Pt  Pt124  1  0.53676878  0.60318098  0.62760410  1
  Pt  Pt125  1  0.60953657  0.49999999  0.62760410  1
  Pt  Pt126  1  0.55476828  0.49999999  0.65900158  1
  Pt  Pt127  1  0.37207903  0.44840951  0.40379338  1
  Pt  Pt128  1  0.51838440  0.55159050  0.65900158  1
  Pt  Pt129  1  0.40846292  0.39681900  0.40379338  1
  Pt  Pt130  1  0.48161561  0.44840951  0.34099841  1
  Pt  Pt131  1  0.62792098  0.55159050  0.59620662  1
  Pt  Pt132  1  0.44523171  0.49999999  0.34099841  1
  Pt  Pt133  1  0.39046342  0.49999999  0.37239589  1
  Pt  Pt134  1  0.46323121  0.39681900  0.37239589  1
  Pt  Pt135  1  0.35369464  0.39681902  0.49865722  1
  Pt  Pt136  1  0.57276780  0.39681902  0.62693271  1
  Pt  Pt137  1  0.57276780  0.39681902  0.37306729  1
  Pt  Pt138  1  0.42723222  0.60318100  0.62693271  1
  Pt  Pt139  1  0.64630537  0.60318100  0.50134278  1
  Pt  Pt140  1  0.42723222  0.60318100  0.37306728  1
  Pt  Pt141  1  0.55515318  0.65477148  0.40580755  1
  Pt  Pt142  1  0.39084831  0.65477148  0.50000002  1
  Pt  Pt143  1  0.60915168  0.34522851  0.50000002  1
  Pt  Pt144  1  0.33569514  0.50000001  0.59419245  1
  Pt  Pt145  1  0.44484681  0.34522851  0.59419245  1
  Pt  Pt146  1  0.66430487  0.50000001  0.40580755  1
  Pt  Pt147  1  0.64630536  0.60318098  0.43787642  1
  Pt  Pt148  1  0.55438340  0.34522852  0.59486384  1
  Pt  Pt149  1  0.37246392  0.60318098  0.59486384  1
  Pt  Pt150  1  0.44561661  0.65477149  0.40513616  1
  Pt  Pt151  1  0.62753607  0.39681900  0.40513616  1
  Pt  Pt152  1  0.35369463  0.39681900  0.56212357  1
  Pt  Pt153  1  0.60992147  0.65477148  0.50134280  1
  Pt  Pt154  1  0.68268925  0.55159049  0.50134280  1
  Pt  Pt155  1  0.44561660  0.65477148  0.59553523  1
  Pt  Pt156  1  0.51799951  0.39681902  0.65833019  1
  Pt  Pt157  1  0.62753608  0.39681902  0.59553523  1
  Pt  Pt158  1  0.55438339  0.34522851  0.40446477  1
  Pt  Pt159  1  0.37246393  0.60318100  0.40446477  1
  Pt  Pt160  1  0.39007852  0.34522851  0.49865724  1
  Pt  Pt161  1  0.40884781  0.55159049  0.65833019  1
  Pt  Pt162  1  0.59115218  0.44840950  0.34166980  1
  Pt  Pt163  1  0.31731073  0.44840950  0.49865724  1
  Pt  Pt164  1  0.48200051  0.60318100  0.34166980  1
  Pt  Pt165  1  0.64630536  0.60318098  0.56480913  1
  Pt  Pt166  1  0.44484682  0.34522852  0.40379338  1
  Pt  Pt167  1  0.48200049  0.60318098  0.65900158  1
  Pt  Pt168  1  0.66430486  0.49999999  0.59620662  1
  Pt  Pt169  1  0.55515319  0.65477149  0.59620662  1
  Pt  Pt170  1  0.59115219  0.44840951  0.65900158  1
  Pt  Pt171  1  0.33569513  0.49999999  0.40379338  1
  Pt  Pt172  1  0.35369463  0.39681900  0.43519086  1
  Pt  Pt173  1  0.40884782  0.55159050  0.34099841  1
  Pt  Pt174  1  0.49999999  0.49999999  0.69039907  1
  Pt  Pt175  1  0.49999999  0.49999999  0.30960093  1
  Pt  Pt176  1  0.51799949  0.39681900  0.34099841  1
  Pt  Pt177  1  0.39007854  0.34522852  0.56212357  1
  Pt  Pt178  1  0.31731075  0.44840951  0.56212357  1
  Pt  Pt179  1  0.60915169  0.34522852  0.56346635  1
  Pt  Pt180  1  0.49961511  0.34522852  0.62626132  1
  Pt  Pt181  1  0.39084832  0.65477149  0.56346635  1
  Pt  Pt182  1  0.60915169  0.34522852  0.43653364  1
  Pt  Pt183  1  0.39084832  0.65477149  0.43653364  1
  Pt  Pt184  1  0.35407953  0.55159050  0.62626132  1
  Pt  Pt185  1  0.60992148  0.65477149  0.43787642  1
  Pt  Pt186  1  0.50038490  0.65477149  0.37373867  1
  Pt  Pt187  1  0.64592048  0.44840951  0.37373868  1
  Pt  Pt188  1  0.68268927  0.55159050  0.43787642  1
  Pt  Pt189  1  0.39007854  0.34522852  0.43519086  1
  Pt  Pt190  1  0.31731075  0.44840951  0.43519086  1
  Pt  Pt191  1  0.49961511  0.34522852  0.37239589  1
  Pt  Pt192  1  0.50038490  0.65477149  0.62760410  1
  Pt  Pt193  1  0.60992148  0.65477149  0.56480913  1
  Pt  Pt194  1  0.64592048  0.44840951  0.62760410  1
  Pt  Pt195  1  0.35407953  0.55159050  0.37239589  1
  Pt  Pt196  1  0.53638390  0.44840951  0.69039907  1
  Pt  Pt197  1  0.53638390  0.44840951  0.30960093  1
  Pt  Pt198  1  0.46361611  0.55159050  0.69039907  1
  Pt  Pt199  1  0.46361611  0.55159050  0.30960093  1
  Pt  Pt200  1  0.68268927  0.55159050  0.56480914  1
  Pt  Pt201  1  0.51876928  0.70636197  0.46927390  1
  Pt  Pt202  1  0.46400099  0.70636197  0.50067139  1
  Pt  Pt203  1  0.29931125  0.55159050  0.53072609  1
  Pt  Pt204  1  0.31769563  0.60318098  0.49932861  1
  Pt  Pt205  1  0.68230436  0.39681900  0.50067139  1
  Pt  Pt206  1  0.53599900  0.29363801  0.49932861  1
  Pt  Pt207  1  0.48123071  0.29363801  0.53072609  1
  Pt  Pt208  1  0.59153707  0.60318098  0.34234119  1
  Pt  Pt209  1  0.37207903  0.44840951  0.65765880  1
  Pt  Pt210  1  0.40846292  0.39681900  0.65765880  1
  Pt  Pt211  1  0.70068877  0.44840951  0.46927391  1
  Pt  Pt212  1  0.62792098  0.55159050  0.34234119  1
  Pt  Pt213  1  0.48123072  0.29363803  0.46725973  1
  Pt  Pt214  1  0.57315268  0.55159049  0.31027234  1
  Pt  Pt215  1  0.51876929  0.70636199  0.53274026  1
  Pt  Pt216  1  0.70068876  0.44840950  0.53274026  1
  Pt  Pt217  1  0.29931123  0.55159049  0.46725973  1
  Pt  Pt218  1  0.42684731  0.44840950  0.68972770  1
  Pt  Pt219  1  0.42684731  0.44840950  0.30892956  1
  Pt  Pt220  1  0.40846293  0.39681902  0.34032702  1
  Pt  Pt221  1  0.62792097  0.55159049  0.65967297  1
  Pt  Pt222  1  0.59153708  0.60318100  0.65967297  1
  Pt  Pt223  1  0.37207902  0.44840950  0.34032702  1
  Pt  Pt224  1  0.57315268  0.55159049  0.69107048  1
  Pt  Pt225  1  0.53599901  0.29363803  0.56279496  1
  Pt  Pt226  1  0.35369464  0.39681902  0.62558993  1
  Pt  Pt227  1  0.31769564  0.60318100  0.56279496  1
  Pt  Pt228  1  0.68230437  0.39681902  0.43720503  1
  Pt  Pt229  1  0.46400100  0.70636199  0.43720503  1
  Pt  Pt230  1  0.64630537  0.60318100  0.37441007  1
  Pt  Pt231  1  0.42646243  0.29363803  0.49865722  1
  Pt  Pt232  1  0.53599901  0.29363803  0.43586225  1
  Pt  Pt233  1  0.28092685  0.50000001  0.49865722  1
  Pt  Pt234  1  0.46400100  0.70636199  0.56413774  1
  Pt  Pt235  1  0.68230437  0.39681902  0.56413775  1
  Pt  Pt236  1  0.39046343  0.50000001  0.68972767  1
  Pt  Pt237  1  0.31769564  0.60318100  0.43586225  1
  Pt  Pt238  1  0.57353758  0.70636199  0.50134278  1
  Pt  Pt239  1  0.46323122  0.39681902  0.68972768  1
  Pt  Pt240  1  0.71907316  0.50000001  0.50134278  1
  Pt  Pt241  1  0.60953658  0.50000001  0.31027232  1
  Pt  Pt242  1  0.53676879  0.60318100  0.31027232  1
  Pt  Pt243  1  0.35369464  0.39681902  0.37172450  1
  Pt  Pt244  1  0.46323122  0.39681902  0.30892954  1
  Pt  Pt245  1  0.39046343  0.50000001  0.30892954  1
  Pt  Pt246  1  0.64630537  0.60318100  0.62827549  1
  Pt  Pt247  1  0.60953658  0.50000001  0.69107046  1
  Pt  Pt248  1  0.53676879  0.60318100  0.69107046  1
  Pt  Pt249  1  0.48123072  0.29363803  0.59419245  1
  Pt  Pt250  1  0.60992147  0.65477148  0.37441009  1
  Pt  Pt251  1  0.68268925  0.55159049  0.37441009  1
  Pt  Pt252  1  0.59076730  0.29363803  0.53139748  1
  Pt  Pt253  1  0.66391997  0.34522851  0.46860252  1
  Pt  Pt254  1  0.40923272  0.70636199  0.46860251  1
  Pt  Pt255  1  0.33608002  0.65477148  0.53139748  1
  Pt  Pt256  1  0.51876929  0.70636199  0.40580755  1
  Pt  Pt257  1  0.70068876  0.44840950  0.40580755  1
  Pt  Pt258  1  0.29931123  0.55159049  0.59419244  1
  Pt  Pt259  1  0.39007852  0.34522851  0.62558995  1
  Pt  Pt260  1  0.31731073  0.44840950  0.62558995  1
  Pt  Pt261  1  0.57353757  0.70636197  0.43787642  1
  Pt  Pt262  1  0.40923270  0.70636197  0.53206887  1
  Pt  Pt263  1  0.44484682  0.34522852  0.65765880  1
  Pt  Pt264  1  0.59076728  0.29363801  0.46793112  1
  Pt  Pt265  1  0.66391998  0.34522852  0.53206887  1
  Pt  Pt266  1  0.33608003  0.65477149  0.46793112  1
  Pt  Pt267  1  0.71907315  0.49999999  0.43787642  1
  Pt  Pt268  1  0.42646242  0.29363801  0.56212357  1
  Pt  Pt269  1  0.28092684  0.49999999  0.56212357  1
  Pt  Pt270  1  0.66430486  0.49999999  0.34234119  1
  Pt  Pt271  1  0.33569513  0.49999999  0.65765880  1
  Pt  Pt272  1  0.55515319  0.65477149  0.34234119  1
  Pt  Pt273  1  0.66468975  0.65477148  0.46994530  1
  Pt  Pt274  1  0.39084831  0.65477148  0.37306731  1
  Pt  Pt275  1  0.60915168  0.34522851  0.37306731  1
  Pt  Pt276  1  0.29892635  0.39681902  0.53005470  1
  Pt  Pt277  1  0.55438339  0.34522851  0.65833019  1
  Pt  Pt278  1  0.37246393  0.60318100  0.65833019  1
  Pt  Pt279  1  0.44561660  0.65477148  0.34166980  1
  Pt  Pt280  1  0.62753608  0.39681902  0.34166980  1
  Pt  Pt281  1  0.33531023  0.34522851  0.53005470  1
  Pt  Pt282  1  0.39084831  0.65477148  0.62693273  1
  Pt  Pt283  1  0.70107366  0.60318100  0.46994530  1
  Pt  Pt284  1  0.60915168  0.34522851  0.62693273  1
  Pt  Pt285  1  0.57353757  0.70636197  0.56480913  1
  Pt  Pt286  1  0.51876928  0.70636197  0.59620662  1
  Pt  Pt287  1  0.33531025  0.34522852  0.46658834  1
  Pt  Pt288  1  0.70107365  0.60318098  0.53341165  1
  Pt  Pt289  1  0.29931125  0.55159050  0.40379338  1
  Pt  Pt290  1  0.71907315  0.49999999  0.56480914  1
  Pt  Pt291  1  0.44561661  0.65477149  0.65900158  1
  Pt  Pt292  1  0.62753607  0.39681900  0.65900158  1
  Pt  Pt293  1  0.55438340  0.34522852  0.34099841  1
  Pt  Pt294  1  0.48123071  0.29363801  0.40379338  1
  Pt  Pt295  1  0.42646242  0.29363801  0.43519086  1
  Pt  Pt296  1  0.37246392  0.60318098  0.34099841  1
  Pt  Pt297  1  0.66468977  0.65477149  0.53341165  1
  Pt  Pt298  1  0.42723220  0.60318098  0.69039907  1
  Pt  Pt299  1  0.42723220  0.60318098  0.30960093  1
  Pt  Pt300  1  0.48161561  0.44840951  0.72179655  1
  Pt  Pt301  1  0.28092684  0.49999999  0.43519086  1
  Pt  Pt302  1  0.55476828  0.49999999  0.27820345  1
  Pt  Pt303  1  0.57276778  0.39681900  0.69039907  1
  Pt  Pt304  1  0.57276778  0.39681900  0.30960093  1
  Pt  Pt305  1  0.29892634  0.39681900  0.46658834  1
  Pt  Pt306  1  0.70068877  0.44840951  0.59620662  1
  Pt  Pt307  1  0.44523171  0.49999999  0.72179655  1
  Pt  Pt308  1  0.51838440  0.55159050  0.27820345  1
  Pt  Pt309  1  0.55515318  0.65477148  0.65967297  1
  Pt  Pt310  1  0.39007852  0.34522851  0.37172453  1
  Pt  Pt311  1  0.60992147  0.65477148  0.62827551  1
  Pt  Pt312  1  0.68268925  0.55159049  0.62827551  1
  Pt  Pt313  1  0.33569514  0.50000001  0.34032702  1
  Pt  Pt314  1  0.66430487  0.50000001  0.65967297  1
  Pt  Pt315  1  0.31731073  0.44840950  0.37172452  1
  Pt  Pt316  1  0.51838439  0.55159049  0.72246794  1
  Pt  Pt317  1  0.44523172  0.50000001  0.27753206  1
  Pt  Pt318  1  0.44484681  0.34522851  0.34032702  1
  Pt  Pt319  1  0.55476829  0.50000001  0.72246794  1
  Pt  Pt320  1  0.48161560  0.44840950  0.27753206  1
  Pt  Pt321  1  0.33531025  0.34522852  0.59352106  1
  Pt  Pt322  1  0.40923270  0.70636197  0.40513616  1
  Pt  Pt323  1  0.46400099  0.70636197  0.37373867  1
  Pt  Pt324  1  0.70107365  0.60318098  0.40647894  1
  Pt  Pt325  1  0.59076728  0.29363801  0.59486384  1
  Pt  Pt326  1  0.33608003  0.65477149  0.59486384  1
  Pt  Pt327  1  0.31769563  0.60318098  0.62626132  1
  Pt  Pt328  1  0.66391998  0.34522852  0.40513616  1
  Pt  Pt329  1  0.68230436  0.39681900  0.37373868  1
  Pt  Pt330  1  0.53599900  0.29363801  0.62626132  1
  Pt  Pt331  1  0.29892634  0.39681900  0.59352105  1
  Pt  Pt332  1  0.66468977  0.65477149  0.40647894  1
  Pt  Pt333  1  0.37169414  0.29363803  0.53005470  1
  Pt  Pt334  1  0.50038489  0.65477148  0.31027234  1
  Pt  Pt335  1  0.59076730  0.29363803  0.40446477  1
  Pt  Pt336  1  0.73745754  0.55159049  0.46994530  1
  Pt  Pt337  1  0.64592047  0.44840950  0.31027234  1
  Pt  Pt338  1  0.40923272  0.70636199  0.59553523  1
  Pt  Pt339  1  0.66391997  0.34522851  0.59553523  1
  Pt  Pt340  1  0.33608002  0.65477148  0.40446477  1
  Pt  Pt341  1  0.62830587  0.70636199  0.46994530  1
  Pt  Pt342  1  0.26254245  0.44840950  0.53005470  1
  Pt  Pt343  1  0.49961510  0.34522851  0.68972770  1
  Pt  Pt344  1  0.35407952  0.55159049  0.68972770  1
  Pt  Pt345  1  0.62830586  0.70636197  0.53341165  1
  Pt  Pt346  1  0.46400099  0.70636197  0.62760410  1
  Pt  Pt347  1  0.26254246  0.44840951  0.46658834  1
  Pt  Pt348  1  0.68230436  0.39681900  0.62760410  1
  Pt  Pt349  1  0.73745755  0.55159050  0.53341165  1
  Pt  Pt350  1  0.37169413  0.29363801  0.46658834  1
  Pt  Pt351  1  0.48200049  0.60318098  0.27820345  1
  Pt  Pt352  1  0.31769563  0.60318098  0.37239589  1
  Pt  Pt353  1  0.53599900  0.29363801  0.37239589  1
  Pt  Pt354  1  0.40884782  0.55159050  0.72179655  1
  Pt  Pt355  1  0.51799949  0.39681900  0.72179655  1
  Pt  Pt356  1  0.59115219  0.44840951  0.27820345  1
  Pt  Pt357  1  0.66468975  0.65477148  0.59687801  1
  Pt  Pt358  1  0.49961510  0.34522851  0.30892956  1
  Pt  Pt359  1  0.29892635  0.39681902  0.40312199  1
  Pt  Pt360  1  0.35407952  0.55159049  0.30892956  1
  Pt  Pt361  1  0.51799951  0.39681902  0.27753206  1
  Pt  Pt362  1  0.33531023  0.34522851  0.40312199  1
  Pt  Pt363  1  0.59115218  0.44840950  0.72246794  1
  Pt  Pt364  1  0.70107366  0.60318100  0.59687801  1
  Pt  Pt365  1  0.48200051  0.60318100  0.72246794  1
  Pt  Pt366  1  0.50038489  0.65477148  0.69107048  1
  Pt  Pt367  1  0.40884781  0.55159049  0.27753205  1
  Pt  Pt368  1  0.64592047  0.44840950  0.69107048  1
  Pt  Pt369  1  0.42646243  0.29363803  0.62558993  1
  Pt  Pt370  1  0.64553558  0.29363803  0.50000000  1
  Pt  Pt371  1  0.35446443  0.70636199  0.50000000  1
  Pt  Pt372  1  0.28092685  0.50000001  0.62558993  1
  Pt  Pt373  1  0.57353758  0.70636199  0.37441007  1
  Pt  Pt374  1  0.71907316  0.50000001  0.37441007  1
  Pt  Pt375  1  0.42646243  0.29363803  0.37172450  1
  Pt  Pt376  1  0.57353758  0.70636199  0.62827549  1
  Pt  Pt377  1  0.28092685  0.50000001  0.37172450  1
  Pt  Pt378  1  0.71907316  0.50000001  0.62827549  1
  Pt  Pt379  1  0.50000001  0.50000001  0.75386542  1
  Pt  Pt380  1  0.50000001  0.50000001  0.24613457  1
  Pt  Pt381  1  0.51761461  0.24204753  0.53072609  1
  Pt  Pt382  1  0.62830586  0.70636197  0.40647894  1
  Pt  Pt383  1  0.35446442  0.70636197  0.56346635  1
  Pt  Pt384  1  0.35446442  0.70636197  0.43653364  1
  Pt  Pt385  1  0.26254246  0.44840951  0.59352105  1
  Pt  Pt386  1  0.51876928  0.70636197  0.34234119  1
  Pt  Pt387  1  0.48238540  0.75795248  0.46927390  1
  Pt  Pt388  1  0.64553557  0.29363801  0.56346635  1
  Pt  Pt389  1  0.29931125  0.55159050  0.65765880  1
  Pt  Pt390  1  0.64553557  0.29363801  0.43653364  1
  Pt  Pt391  1  0.73707265  0.39681900  0.46927391  1
  Pt  Pt392  1  0.26292734  0.60318098  0.53072609  1
  Pt  Pt393  1  0.64630536  0.60318098  0.31094371  1
  Pt  Pt394  1  0.48123071  0.29363801  0.65765880  1
  Pt  Pt395  1  0.37169413  0.29363801  0.59352106  1
  Pt  Pt396  1  0.73745755  0.55159050  0.40647894  1
  Pt  Pt397  1  0.35369463  0.39681900  0.68905628  1
  Pt  Pt398  1  0.70068877  0.44840951  0.34234119  1
  Pt  Pt399  1  0.53715368  0.75795247  0.50134280  1
  Pt  Pt400  1  0.48238539  0.75795247  0.53274026  1
  Pt  Pt401  1  0.51761460  0.24204752  0.46725973  1
  Pt  Pt402  1  0.46284631  0.24204752  0.49865724  1
  Pt  Pt403  1  0.75545704  0.44840950  0.50134280  1
  Pt  Pt404  1  0.73707266  0.39681902  0.53274026  1
  Pt  Pt405  1  0.26292735  0.60318100  0.46725973  1
  Pt  Pt406  1  0.40846293  0.39681902  0.72112516  1
  Pt  Pt407  1  0.62792097  0.55159049  0.27887484  1
  Pt  Pt408  1  0.24454294  0.55159049  0.49865724  1
  Pt  Pt409  1  0.59153708  0.60318100  0.27887484  1
  Pt  Pt410  1  0.37207902  0.44840950  0.72112516  1
  Pt  Pt411  1  0.37169414  0.29363803  0.40312199  1
  Pt  Pt412  1  0.48123072  0.29363803  0.34032702  1
  Pt  Pt413  1  0.73745754  0.55159049  0.59687801  1
  Pt  Pt414  1  0.46361610  0.55159049  0.24613459  1
  Pt  Pt415  1  0.53638389  0.44840950  0.24613459  1
  Pt  Pt416  1  0.51876929  0.70636199  0.65967297  1
  Pt  Pt417  1  0.70068876  0.44840950  0.65967297  1
  Pt  Pt418  1  0.62830587  0.70636199  0.59687801  1
  Pt  Pt419  1  0.26254245  0.44840950  0.40312199  1
  Pt  Pt420  1  0.29931123  0.55159049  0.34032702  1
  Pt  Pt421  1  0.46361610  0.55159049  0.75386544  1
  Pt  Pt422  1  0.53638389  0.44840950  0.75386544  1
  Pt  Pt423  1  0.64630536  0.60318098  0.69174185  1
  Pt  Pt424  1  0.59153707  0.60318098  0.72313933  1
  Pt  Pt425  1  0.35369463  0.39681900  0.30825815  1
  Pt  Pt426  1  0.62792098  0.55159050  0.72313933  1
  Pt  Pt427  1  0.37207903  0.44840951  0.27686066  1
  Pt  Pt428  1  0.40846292  0.39681900  0.27686066  1
  Pt  Pt429  1  0.46284632  0.24204753  0.56212357  1
  Pt  Pt430  1  0.57238290  0.24204753  0.49932861  1
  Pt  Pt431  1  0.39007854  0.34522852  0.68905628  1
  Pt  Pt432  1  0.42761711  0.75795248  0.50067139  1
  Pt  Pt433  1  0.24454296  0.55159050  0.56212357  1
  Pt  Pt434  1  0.31731075  0.44840951  0.68905628  1
  Pt  Pt435  1  0.53715369  0.75795248  0.43787642  1
  Pt  Pt436  1  0.28131174  0.65477149  0.49932861  1
  Pt  Pt437  1  0.71868827  0.34522852  0.50067139  1
  Pt  Pt438  1  0.60992148  0.65477149  0.31094371  1
  Pt  Pt439  1  0.75545706  0.44840951  0.43787642  1
  Pt  Pt440  1  0.68268927  0.55159050  0.31094371  1
  Pt  Pt441  1  0.46284632  0.24204753  0.43519086  1
  Pt  Pt442  1  0.28054196  0.34522852  0.49798583  1
  Pt  Pt443  1  0.53715369  0.75795248  0.56480913  1
  Pt  Pt444  1  0.24454296  0.55159050  0.43519086  1
  Pt  Pt445  1  0.71945805  0.65477149  0.50201417  1
  Pt  Pt446  1  0.60915169  0.34522852  0.69039907  1
  Pt  Pt447  1  0.60915169  0.34522852  0.30960093  1
  Pt  Pt448  1  0.39084832  0.65477149  0.69039907  1
  Pt  Pt449  1  0.39084832  0.65477149  0.30960093  1
  Pt  Pt450  1  0.42684732  0.44840951  0.75319403  1
  Pt  Pt451  1  0.75545706  0.44840951  0.56480914  1
  Pt  Pt452  1  0.57315269  0.55159050  0.24680596  1
  Pt  Pt453  1  0.39007854  0.34522852  0.30825815  1
  Pt  Pt454  1  0.31731075  0.44840951  0.30825815  1
  Pt  Pt455  1  0.60992148  0.65477149  0.69174185  1
  Pt  Pt456  1  0.57315269  0.55159050  0.75453681  1
  Pt  Pt457  1  0.42684732  0.44840951  0.24546318  1
  Pt  Pt458  1  0.68268927  0.55159050  0.69174185  1
  Pt  Pt459  1  0.42761710  0.75795247  0.43720505  1
  Pt  Pt460  1  0.48238539  0.75795247  0.40580755  1
  Pt  Pt461  1  0.51761460  0.24204752  0.59419245  1
  Pt  Pt462  1  0.29892635  0.39681902  0.65698741  1
  Pt  Pt463  1  0.71868826  0.34522851  0.43720505  1
  Pt  Pt464  1  0.66468975  0.65477148  0.34301258  1
  Pt  Pt465  1  0.57238289  0.24204752  0.56279499  1
  Pt  Pt466  1  0.26292735  0.60318100  0.59419244  1
  Pt  Pt467  1  0.73707266  0.39681902  0.40580755  1
  Pt  Pt468  1  0.28131173  0.65477148  0.56279498  1
  Pt  Pt469  1  0.33531023  0.34522851  0.65698741  1
  Pt  Pt470  1  0.70107366  0.60318100  0.34301258  1
  Pt  Pt471  1  0.59192196  0.75795247  0.46994530  1
  Pt  Pt472  1  0.71945804  0.65477148  0.43854783  1
  Pt  Pt473  1  0.57238289  0.24204752  0.43586227  1
  Pt  Pt474  1  0.42761710  0.75795247  0.56413776  1
  Pt  Pt475  1  0.59076730  0.29363803  0.65833019  1
  Pt  Pt476  1  0.40807802  0.24204752  0.53005470  1
  Pt  Pt477  1  0.28131173  0.65477148  0.43586227  1
  Pt  Pt478  1  0.22615856  0.50000001  0.53005470  1
  Pt  Pt479  1  0.33608002  0.65477148  0.65833019  1
  Pt  Pt480  1  0.55515318  0.65477148  0.27887484  1
  Pt  Pt481  1  0.40923272  0.70636199  0.34166980  1
  Pt  Pt482  1  0.28054195  0.34522851  0.56145220  1
  Pt  Pt483  1  0.71868826  0.34522851  0.56413777  1
  Pt  Pt484  1  0.66391997  0.34522851  0.34166980  1
  Pt  Pt485  1  0.33569514  0.50000001  0.72112516  1
  Pt  Pt486  1  0.77384145  0.50000001  0.46994530  1
  Pt  Pt487  1  0.44484681  0.34522851  0.72112516  1
  Pt  Pt488  1  0.66430487  0.50000001  0.27887484  1
  Pt  Pt489  1  0.40807804  0.24204753  0.46658834  1
  Pt  Pt490  1  0.68307415  0.70636197  0.50201417  1
  Pt  Pt491  1  0.51761461  0.24204753  0.40379338  1
  Pt  Pt492  1  0.40923270  0.70636197  0.65900158  1
  Pt  Pt493  1  0.75584194  0.60318098  0.50201417  1
  Pt  Pt494  1  0.48238540  0.75795248  0.59620662  1
  Pt  Pt495  1  0.59192198  0.75795248  0.53341165  1
  Pt  Pt496  1  0.77384144  0.49999999  0.53341165  1
  Pt  Pt497  1  0.66391998  0.34522852  0.65900158  1
  Pt  Pt498  1  0.73707265  0.39681900  0.59620662  1
  Pt  Pt499  1  0.26292734  0.60318098  0.40379338  1
  Pt  Pt500  1  0.55438340  0.34522852  0.72179655  1
  Pt  Pt501  1  0.59076728  0.29363801  0.34099841  1
  Pt  Pt502  1  0.31692584  0.29363801  0.49798583  1
  Pt  Pt503  1  0.37246392  0.60318098  0.72179655  1
  Pt  Pt504  1  0.33608003  0.65477149  0.34099841  1
  Pt  Pt505  1  0.44561661  0.65477149  0.27820345  1
  Pt  Pt506  1  0.62753607  0.39681900  0.27820345  1
  Pt  Pt507  1  0.22615855  0.49999999  0.46658834  1
  Pt  Pt508  1  0.24415805  0.39681900  0.49798582  1
  Pt  Pt509  1  0.39046342  0.49999999  0.75319403  1
  Pt  Pt510  1  0.46323121  0.39681900  0.75319403  1
  Pt  Pt511  1  0.53676878  0.60318098  0.24680596  1
  Pt  Pt512  1  0.60953657  0.49999999  0.24680596  1
  Pt  Pt513  1  0.71945804  0.65477148  0.56548055  1
  Pt  Pt514  1  0.28054195  0.34522851  0.43451949  1
  Pt  Pt515  1  0.44561660  0.65477148  0.72246794  1
  Pt  Pt516  1  0.62753608  0.39681902  0.72246794  1
  Pt  Pt517  1  0.55438339  0.34522851  0.27753206  1
  Pt  Pt518  1  0.37246393  0.60318100  0.27753205  1
  Pt  Pt519  1  0.70107365  0.60318098  0.66034436  1
  Pt  Pt520  1  0.33531025  0.34522852  0.33965563  1
  Pt  Pt521  1  0.53676878  0.60318098  0.75453681  1
  Pt  Pt522  1  0.66430486  0.49999999  0.72313933  1
  Pt  Pt523  1  0.60953657  0.49999999  0.75453681  1
  Pt  Pt524  1  0.66468977  0.65477149  0.66034436  1
  Pt  Pt525  1  0.55515319  0.65477149  0.72313933  1
  Pt  Pt526  1  0.44484682  0.34522852  0.27686066  1
  Pt  Pt527  1  0.29892634  0.39681900  0.33965563  1
  Pt  Pt528  1  0.39046342  0.49999999  0.24546318  1
  Pt  Pt529  1  0.33569513  0.49999999  0.27686066  1
  Pt  Pt530  1  0.46323121  0.39681900  0.24546318  1
  Pt  Pt531  1  0.31692585  0.29363803  0.56145218  1
  Pt  Pt532  1  0.64553558  0.29363803  0.62693271  1
  Pt  Pt533  1  0.64553558  0.29363803  0.37306729  1
  Pt  Pt534  1  0.24415806  0.39681902  0.56145218  1
  Pt  Pt535  1  0.53599901  0.29363803  0.68972768  1
  Pt  Pt536  1  0.35446443  0.70636199  0.62693271  1
  Pt  Pt537  1  0.31769564  0.60318100  0.68972767  1
  Pt  Pt538  1  0.35446443  0.70636199  0.37306728  1
  Pt  Pt539  1  0.68230437  0.39681902  0.31027232  1
  Pt  Pt540  1  0.68307416  0.70636199  0.43854781  1
  Pt  Pt541  1  0.46400100  0.70636199  0.31027232  1
  Pt  Pt542  1  0.75584195  0.60318100  0.43854781  1
  Pt  Pt543  1  0.31692585  0.29363803  0.43451947  1
  Pt  Pt544  1  0.53599901  0.29363803  0.30892954  1
  Au  Au545  1  0.24415806  0.39681902  0.43451947  1
  Au  Au546  1  0.68230437  0.39681902  0.69107046  1
  Au  Au547  1  0.57276780  0.39681902  0.75386542  1
  Au  Au548  1  0.68307416  0.70636199  0.56548053  1
  Au  Au549  1  0.31769564  0.60318100  0.30892954  1
  Au  Au550  1  0.46400100  0.70636199  0.69107046  1
  Au  Au551  1  0.42723222  0.60318100  0.75386542  1
  Au  Au552  1  0.75584195  0.60318100  0.56548053  1
  Au  Au553  1  0.57276780  0.39681902  0.24613457  1
  Au  Au554  1  0.42723222  0.60318100  0.24613457  1
  Au  Au555  1  0.53715368  0.75795247  0.37441009  1
  Au  Au556  1  0.37169414  0.29363803  0.65698741  1
  Au  Au557  1  0.37284881  0.75795247  0.46860251  1
  Au  Au558  1  0.75545704  0.44840950  0.37441009  1
  Au  Au559  1  0.70030387  0.29363803  0.46860252  1
  Au  Au560  1  0.62715118  0.24204752  0.53139748  1
  Au  Au561  1  0.29969614  0.70636199  0.53139748  1
  Au  Au562  1  0.73745754  0.55159049  0.34301258  1
  Au  Au563  1  0.46284631  0.24204752  0.62558995  1
  Au  Au564  1  0.26254245  0.44840950  0.65698741  1
  Au  Au565  1  0.62830587  0.70636199  0.34301258  1
  Au  Au566  1  0.24454294  0.55159049  0.62558995  1
  Au  Au567  1  0.40807804  0.24204753  0.59352106  1
  Au  Au568  1  0.62715119  0.24204753  0.46793113  1
  Au  Au569  1  0.29969613  0.70636197  0.46793112  1
  Au  Au570  1  0.37284882  0.75795248  0.53206887  1
  Au  Au571  1  0.57353757  0.70636197  0.31094371  1
  Au  Au572  1  0.70030386  0.29363801  0.53206887  1
  Au  Au573  1  0.59192198  0.75795248  0.40647894  1
  Au  Au574  1  0.77384144  0.49999999  0.40647894  1
  Au  Au575  1  0.71907315  0.49999999  0.31094371  1
  Au  Au576  1  0.28092684  0.49999999  0.68905628  1
  Au  Au577  1  0.22615855  0.49999999  0.59352105  1
  Au  Au578  1  0.42646242  0.29363801  0.68905629  1
  Au  Au579  1  0.59192196  0.75795247  0.59687801  1
  Au  Au580  1  0.46284631  0.24204752  0.37172453  1
  Au  Au581  1  0.53715368  0.75795247  0.62827551  1
  Au  Au582  1  0.40807802  0.24204752  0.40312199  1
  Au  Au583  1  0.22615856  0.50000001  0.40312199  1
  Au  Au584  1  0.75545704  0.44840950  0.62827551  1
  Au  Au585  1  0.44523172  0.50000001  0.78526290  1
  Au  Au586  1  0.24454294  0.55159049  0.37172452  1
  Au  Au587  1  0.48161560  0.44840950  0.78526290  1
  Au  Au588  1  0.77384145  0.50000001  0.59687801  1
  Au  Au589  1  0.51838439  0.55159049  0.21473709  1
  Au  Au590  1  0.55476829  0.50000001  0.21473709  1
  Au  Au591  1  0.62830586  0.70636197  0.66034436  1
  Au  Au592  1  0.57353757  0.70636197  0.69174185  1
  Au  Au593  1  0.26254246  0.44840951  0.33965563  1
  Au  Au594  1  0.71907315  0.49999999  0.69174185  1
  Au  Au595  1  0.42646242  0.29363801  0.30825815  1
  Au  Au596  1  0.37169413  0.29363801  0.33965563  1
  Au  Au597  1  0.73745755  0.55159050  0.66034437  1
  Au  Au598  1  0.28092684  0.49999999  0.30825815  1
  Au  Au599  1  0.48161561  0.44840951  0.21406570  1
  Au  Au600  1  0.55476828  0.49999999  0.78593430  1
  Au  Au601  1  0.44523171  0.49999999  0.21406570  1
  Au  Au602  1  0.51838440  0.55159050  0.78593430  1
  Au  Au603  1  0.57238290  0.24204753  0.62626132  1
  Au  Au604  1  0.28054196  0.34522852  0.62491854  1
  Au  Au605  1  0.42761711  0.75795248  0.37373867  1
  Au  Au606  1  0.28131174  0.65477149  0.62626132  1
  Au  Au607  1  0.71868827  0.34522852  0.37373868  1
  Au  Au608  1  0.71945805  0.65477149  0.37508146  1
  Au  Au609  1  0.35330975  0.24204753  0.49798583  1
  Au  Au610  1  0.57238290  0.24204753  0.37239590  1
  Au  Au611  1  0.42761711  0.75795248  0.62760410  1
  Au  Au612  1  0.20777417  0.44840951  0.49798582  1
  Au  Au613  1  0.64669027  0.75795248  0.50201417  1
  Au  Au614  1  0.49961511  0.34522852  0.75319403  1
  Au  Au615  1  0.71868827  0.34522852  0.62760410  1
  Au  Au616  1  0.28131174  0.65477149  0.37239589  1
  Au  Au617  1  0.79222584  0.55159050  0.50201417  1
  Au  Au618  1  0.35407953  0.55159050  0.75319403  1
  Au  Au619  1  0.50038490  0.65477149  0.24680596  1
  Au  Au620  1  0.64592048  0.44840951  0.24680596  1
  Au  Au621  1  0.28054196  0.34522852  0.37105311  1
  Au  Au622  1  0.71945805  0.65477149  0.62894688  1
  Au  Au623  1  0.50038490  0.65477149  0.75453681  1
  Au  Au624  1  0.49961511  0.34522852  0.24546318  1
  Au  Au625  1  0.64592048  0.44840951  0.75453681  1
  Au  Au626  1  0.35407953  0.55159050  0.24546318  1
  Au  Au627  1  0.51761461  0.24204753  0.65765880  1
  Au  Au628  1  0.68307415  0.70636197  0.37508146  1
  Au  Au629  1  0.29969613  0.70636197  0.59486383  1
  Au  Au630  1  0.62715119  0.24204753  0.59486384  1
  Au  Au631  1  0.37284882  0.75795248  0.40513616  1
  Au  Au632  1  0.75584194  0.60318098  0.37508146  1
  Au  Au633  1  0.70030386  0.29363801  0.40513616  1
  Au  Au634  1  0.48238540  0.75795248  0.34234119  1
  Au  Au635  1  0.26292734  0.60318098  0.65765880  1
  Au  Au636  1  0.73707265  0.39681900  0.34234119  1
  Au  Au637  1  0.31692584  0.29363801  0.62491854  1
  Au  Au638  1  0.24415805  0.39681900  0.62491854  1
  Au  Au639  1  0.64669025  0.75795247  0.43854783  1
  Au  Au640  1  0.37284881  0.75795247  0.59553523  1
  Au  Au641  1  0.79222583  0.55159049  0.43854784  1
  Au  Au642  1  0.70030387  0.29363803  0.59553523  1
  Au  Au643  1  0.62715118  0.24204752  0.40446477  1
  Au  Au644  1  0.48123072  0.29363803  0.72112516  1
  Au  Au645  1  0.35330974  0.24204752  0.56145220  1
  Au  Au646  1  0.29969614  0.70636199  0.40446477  1
  Au  Au647  1  0.51876929  0.70636199  0.27887484  1
  Au  Au648  1  0.20777416  0.44840950  0.56145220  1
  Au  Au649  1  0.70068876  0.44840950  0.27887484  1
  Au  Au650  1  0.29931123  0.55159049  0.72112516  1
  Au  Au651  1  0.48238539  0.75795247  0.65967297  1
  Au  Au652  1  0.64669025  0.75795247  0.56548055  1
  Au  Au653  1  0.35330974  0.24204752  0.43451949  1
  Au  Au654  1  0.51761460  0.24204752  0.34032702  1
  Au  Au655  1  0.79222583  0.55159049  0.56548055  1
  Au  Au656  1  0.73707266  0.39681902  0.65967297  1
  Au  Au657  1  0.20777416  0.44840950  0.43451949  1
  Au  Au658  1  0.26292735  0.60318100  0.34032702  1
  Au  Au659  1  0.40884781  0.55159049  0.78526290  1
  Au  Au660  1  0.51799951  0.39681902  0.78526291  1
  Au  Au661  1  0.59115218  0.44840950  0.21473709  1
  Au  Au662  1  0.48200051  0.60318100  0.21473709  1
  Au  Au663  1  0.68307415  0.70636197  0.62894688  1
  Au  Au664  1  0.51876928  0.70636197  0.72313933  1
  Au  Au665  1  0.75584194  0.60318098  0.62894688  1
  Au  Au666  1  0.48123071  0.29363801  0.27686067  1
  Au  Au667  1  0.29931125  0.55159050  0.27686066  1
  Au  Au668  1  0.31692584  0.29363801  0.37105311  1
  Au  Au669  1  0.48200049  0.60318098  0.78593430  1
  Au  Au670  1  0.70068877  0.44840951  0.72313933  1
  Au  Au671  1  0.24415805  0.39681900  0.37105311  1
  Au  Au672  1  0.40884782  0.55159050  0.21406570  1
  Au  Au673  1  0.59115219  0.44840951  0.78593430  1
  Au  Au674  1  0.51799949  0.39681900  0.21406570  1
  Au  Au675  1  0.49923022  0.19045704  0.49865722  1
  Au  Au676  1  0.50076979  0.80954298  0.50134278  1
  Au  Au677  1  0.20815906  0.60318100  0.49865721  1
  Au  Au678  1  0.35369464  0.39681902  0.75252264  1
  Au  Au679  1  0.79184095  0.39681902  0.50134278  1
  Au  Au680  1  0.64630537  0.60318100  0.24747735  1
  Au  Au681  1  0.35369464  0.39681902  0.24479179  1
  Au  Au682  1  0.64630537  0.60318100  0.75520820  1
  Au  Au683  1  0.59192196  0.75795247  0.34301258  1
  Au  Au684  1  0.31808052  0.75795247  0.50000002  1
  Au  Au685  1  0.68191947  0.24204752  0.50000002  1
  Au  Au686  1  0.40807802  0.24204752  0.65698741  1
  Au  Au687  1  0.22615856  0.50000001  0.65698741  1
  Au  Au688  1  0.77384145  0.50000001  0.34301258  1
  Au  Au689  1  0.50076978  0.80954297  0.43787642  1
  Au  Au690  1  0.44600149  0.80954297  0.46927390  1
  Au  Au691  1  0.22654346  0.65477149  0.53072609  1
  Au  Au692  1  0.49923021  0.19045702  0.56212357  1
  Au  Au693  1  0.55399850  0.19045702  0.53072609  1
  Au  Au694  1  0.33531025  0.34522852  0.72045377  1
  Au  Au695  1  0.70107365  0.60318098  0.27954623  1
  Au  Au696  1  0.79184094  0.39681900  0.43787642  1
  Au  Au697  1  0.20815905  0.60318098  0.56212357  1
  Au  Au698  1  0.77345656  0.34522852  0.46927391  1
  Au  Au699  1  0.66468977  0.65477149  0.27954623  1
  Au  Au700  1  0.29892634  0.39681900  0.72045377  1
  Au  Au701  1  0.44446193  0.19045704  0.53005470  1
  Au  Au702  1  0.55399851  0.19045704  0.46725973  1
  Au  Au703  1  0.68268925  0.55159049  0.24747738  1
  Au  Au704  1  0.77345654  0.34522851  0.53274026  1
  Au  Au705  1  0.44600150  0.80954298  0.53274026  1
  Au  Au706  1  0.60992147  0.65477148  0.24747737  1
  Au  Au707  1  0.81022533  0.44840950  0.46994530  1
  Au  Au708  1  0.55553808  0.80954298  0.46994529  1
  Au  Au709  1  0.18977466  0.55159049  0.53005470  1
  Au  Au710  1  0.22654344  0.65477148  0.46725973  1
  Au  Au711  1  0.39007852  0.34522851  0.75252266  1
  Au  Au712  1  0.31731073  0.44840950  0.75252266  1
  Au  Au713  1  0.55553807  0.80954297  0.53341165  1
  Au  Au714  1  0.50076978  0.80954297  0.56480913  1
  Au  Au715  1  0.73784244  0.70636197  0.47061669  1
  Au  Au716  1  0.35446442  0.70636197  0.69039906  1
  Au  Au717  1  0.22577367  0.34522852  0.52938331  1
  Au  Au718  1  0.49923021  0.19045702  0.43519086  1
  Au  Au719  1  0.35446442  0.70636197  0.30960093  1
  Au  Au720  1  0.44446192  0.19045702  0.46658834  1
  Au  Au721  1  0.18977467  0.55159050  0.46658834  1
  Au  Au722  1  0.79184094  0.39681900  0.56480914  1
  Au  Au723  1  0.81022534  0.44840951  0.53341165  1
  Au  Au724  1  0.77422634  0.65477149  0.47061669  1
  Au  Au725  1  0.64553557  0.29363801  0.69039907  1
  Au  Au726  1  0.64553557  0.29363801  0.30960093  1
  Au  Au727  1  0.20815905  0.60318098  0.43519086  1
  Au  Au728  1  0.59076728  0.29363801  0.72179655  1
  Au  Au729  1  0.40923270  0.70636197  0.27820344  1
  Au  Au730  1  0.33608003  0.65477149  0.72179655  1
  Au  Au731  1  0.66391998  0.34522852  0.27820345  1
  Au  Au732  1  0.37207903  0.44840951  0.78459151  1
  Au  Au733  1  0.26215755  0.29363801  0.52938331  1
  Au  Au734  1  0.59153707  0.60318098  0.21540848  1
  Au  Au735  1  0.40846292  0.39681900  0.78459151  1
  Au  Au736  1  0.62792098  0.55159050  0.21540848  1
  Au  Au737  1  0.26215756  0.29363803  0.46591695  1
  Au  Au738  1  0.77422633  0.65477148  0.53408304  1
  Au  Au739  1  0.39084831  0.65477148  0.24613459  1
  Au  Au740  1  0.59076730  0.29363803  0.27753206  1
  Au  Au741  1  0.60915168  0.34522851  0.24613459  1
  Au  Au742  1  0.22577366  0.34522851  0.46591695  1
  Au  Au743  1  0.40923272  0.70636199  0.72246794  1
  Au  Au744  1  0.66391997  0.34522851  0.72246794  1
  Au  Au745  1  0.73784245  0.70636199  0.53408304  1
  Au  Au746  1  0.33608002  0.65477148  0.27753205  1
  Au  Au747  1  0.39084831  0.65477148  0.75386544  1
  Au  Au748  1  0.60915168  0.34522851  0.75386544  1
  Au  Au749  1  0.40807804  0.24204753  0.33965563  1
  Au  Au750  1  0.59192198  0.75795248  0.66034436  1
  Au  Au751  1  0.77384144  0.49999999  0.66034437  1
  Au  Au752  1  0.22615855  0.49999999  0.33965563  1
  Au  Au753  1  0.49999999  0.49999999  0.81733178  1
  Au  Au754  1  0.49999999  0.49999999  0.18266822  1
  Au  Au755  1  0.66468975  0.65477148  0.72381072  1
  Au  Au756  1  0.39007852  0.34522851  0.24479181  1
  Au  Au757  1  0.31731073  0.44840950  0.24479181  1
  Au  Au758  1  0.29892635  0.39681902  0.27618927  1
  Au  Au759  1  0.40846293  0.39681902  0.21339431  1
  Au  Au760  1  0.70107366  0.60318100  0.72381072  1
  Au  Au761  1  0.62792097  0.55159049  0.78660569  1
  Au  Au762  1  0.60992147  0.65477148  0.75520822  1
  Au  Au763  1  0.33531023  0.34522851  0.27618927  1
  Au  Au764  1  0.59153708  0.60318100  0.78660569  1
  Au  Au765  1  0.37207902  0.44840950  0.21339431  1
  Au  Au766  1  0.68268925  0.55159049  0.75520823  1
  Au  Au767  1  0.35330975  0.24204753  0.62491854  1
  Au  Au768  1  0.68191948  0.24204753  0.56346635  1
  Au  Au769  1  0.68191948  0.24204753  0.43653364  1
  Au  Au770  1  0.31808053  0.75795248  0.56346635  1
  Au  Au771  1  0.46284632  0.24204753  0.68905629  1
  Au  Au772  1  0.31808053  0.75795248  0.43653364  1
  Au  Au773  1  0.20777417  0.44840951  0.62491854  1
  Au  Au774  1  0.24454296  0.55159050  0.68905628  1
  Au  Au775  1  0.64669027  0.75795248  0.37508146  1
  Au  Au776  1  0.53715369  0.75795248  0.31094371  1
  Au  Au777  1  0.79222584  0.55159050  0.37508146  1
  Au  Au778  1  0.75545706  0.44840951  0.31094371  1
  Au  Au779  1  0.35330975  0.24204753  0.37105311  1
  Au  Au780  1  0.46284632  0.24204753  0.30825815  1
  Au  Au781  1  0.20777417  0.44840951  0.37105311  1
  Au  Au782  1  0.64669027  0.75795248  0.62894688  1
  Au  Au783  1  0.53715369  0.75795248  0.69174185  1
  Au  Au784  1  0.24454296  0.55159050  0.30825815  1
  Au  Au785  1  0.79222584  0.55159050  0.62894688  1
  Au  Au786  1  0.75545706  0.44840951  0.69174185  1
  Au  Au787  1  0.53638390  0.44840951  0.81733178  1
  Au  Au788  1  0.53638390  0.44840951  0.18266822  1
  Au  Au789  1  0.46361611  0.55159050  0.81733178  1
  Au  Au790  1  0.46361611  0.55159050  0.18266822  1
  Au  Au791  1  0.55399851  0.19045704  0.59419245  1
  Au  Au792  1  0.71945804  0.65477148  0.31161512  1
  Au  Au793  1  0.77345654  0.34522851  0.40580755  1
  Au  Au794  1  0.44600150  0.80954298  0.40580755  1
  Au  Au795  1  0.22654344  0.65477148  0.59419244  1
  Au  Au796  1  0.28054195  0.34522851  0.68838492  1
  Au  Au797  1  0.55553807  0.80954297  0.40647894  1
  Au  Au798  1  0.39123320  0.80954297  0.50067139  1
  Au  Au799  1  0.60876678  0.19045702  0.49932861  1
  Au  Au800  1  0.24492784  0.70636197  0.49932860  1
  Au  Au801  1  0.62830586  0.70636197  0.27954623  1
  Au  Au802  1  0.18977467  0.55159050  0.59352105  1
  Au  Au803  1  0.75507215  0.29363801  0.50067139  1
  Au  Au804  1  0.44446192  0.19045702  0.59352106  1
  Au  Au805  1  0.26254246  0.44840951  0.72045377  1
  Au  Au806  1  0.81022534  0.44840951  0.40647894  1
  Au  Au807  1  0.37169413  0.29363801  0.72045377  1
  Au  Au808  1  0.73745755  0.55159050  0.27954623  1
  Au  Au809  1  0.42761710  0.75795247  0.31027234  1
  Au  Au810  1  0.26215756  0.29363803  0.59284966  1
  Au  Au811  1  0.77422633  0.65477148  0.40715033  1
  Au  Au812  1  0.62715118  0.24204752  0.65833019  1
  Au  Au813  1  0.71868826  0.34522851  0.31027234  1
  Au  Au814  1  0.37284881  0.75795247  0.34166980  1
  Au  Au815  1  0.70030387  0.29363803  0.34166980  1
  Au  Au816  1  0.29969614  0.70636199  0.65833019  1
  Au  Au817  1  0.22577366  0.34522851  0.59284966  1
  Au  Au818  1  0.73784245  0.70636199  0.40715033  1
  Au  Au819  1  0.57238289  0.24204752  0.68972770  1
  Au  Au820  1  0.28131173  0.65477148  0.68972770  1
  Au  Au821  1  0.29854146  0.24204753  0.52938331  1
  Au  Au822  1  0.61030636  0.80954297  0.50201417  1
  Au  Au823  1  0.44600149  0.80954297  0.59620662  1
  Au  Au824  1  0.37284882  0.75795248  0.65900158  1
  Au  Au825  1  0.22654346  0.65477149  0.40379338  1
  Au  Au826  1  0.62715119  0.24204753  0.34099841  1
  Au  Au827  1  0.55399850  0.19045702  0.40379338  1
  Au  Au828  1  0.70145855  0.75795248  0.47061669  1
  Au  Au829  1  0.38969363  0.19045702  0.49798583  1
  Au  Au830  1  0.81061023  0.60318098  0.47061669  1
  Au  Au831  1  0.29969613  0.70636197  0.34099841  1
  Au  Au832  1  0.70030386  0.29363801  0.65900158  1
  Au  Au833  1  0.82860973  0.49999999  0.50201417  1
  Au  Au834  1  0.44484682  0.34522852  0.78459151  1
  Au  Au835  1  0.46400099  0.70636197  0.24680596  1
  Au  Au836  1  0.31769563  0.60318098  0.75319403  1
  Au  Au837  1  0.77345656  0.34522852  0.59620662  1
  Au  Au838  1  0.53599900  0.29363801  0.75319403  1
  Au  Au839  1  0.33569513  0.49999999  0.78459151  1
  Au  Au840  1  0.17139026  0.49999999  0.49798582  1
  Au  Au841  1  0.18938976  0.39681900  0.52938331  1
  Au  Au842  1  0.66430486  0.49999999  0.21540848  1
  Au  Au843  1  0.68230436  0.39681900  0.24680596  1
  Au  Au844  1  0.55515319  0.65477149  0.21540848  1
  Au  Au845  1  0.44446193  0.19045704  0.40312199  1
  Au  Au846  1  0.70145854  0.75795247  0.53408304  1
  Au  Au847  1  0.57238289  0.24204752  0.30892956  1
  Au  Au848  1  0.57315268  0.55159049  0.18333963  1
  Au  Au849  1  0.29854145  0.24204752  0.46591695  1
  Au  Au850  1  0.28131173  0.65477148  0.30892956  1
  Au  Au851  1  0.55553808  0.80954298  0.59687801  1
  Au  Au852  1  0.18938977  0.39681902  0.46591695  1
  Au  Au853  1  0.81022533  0.44840950  0.59687801  1
  Au  Au854  1  0.18977466  0.55159049  0.40312199  1
  Au  Au855  1  0.42761710  0.75795247  0.69107048  1
  Au  Au856  1  0.37246393  0.60318100  0.78526290  1
  Au  Au857  1  0.44561660  0.65477148  0.21473709  1
  Au  Au858  1  0.81061024  0.60318100  0.53408304  1
  Au  Au859  1  0.62753608  0.39681902  0.21473709  1
  Au  Au860  1  0.55438339  0.34522851  0.78526291  1
  Au  Au861  1  0.71868826  0.34522851  0.69107048  1
  Au  Au862  1  0.42684731  0.44840950  0.81666041  1
  Au  Au863  1  0.73784244  0.70636197  0.59754940  1
  Au  Au864  1  0.22577367  0.34522852  0.40245060  1
  Au  Au865  1  0.46400099  0.70636197  0.75453681  1
  Au  Au866  1  0.77422634  0.65477149  0.59754940  1
  Au  Au867  1  0.44561661  0.65477149  0.78593429  1
  Au  Au868  1  0.68230436  0.39681900  0.75453681  1
  Au  Au869  1  0.26215755  0.29363801  0.40245060  1
  Au  Au870  1  0.55438340  0.34522852  0.21406570  1
  Au  Au871  1  0.37246392  0.60318098  0.21406570  1
  Au  Au872  1  0.31769563  0.60318098  0.24546318  1
  Au  Au873  1  0.53599900  0.29363801  0.24546318  1
  Au  Au874  1  0.62753607  0.39681900  0.78593430  1
  Au  Au875  1  0.28054195  0.34522851  0.30758678  1
  Au  Au876  1  0.42684731  0.44840950  0.18199685  1
  Au  Au877  1  0.37169414  0.29363803  0.27618927  1
  Au  Au878  1  0.73745754  0.55159049  0.72381072  1
  Au  Au879  1  0.71945804  0.65477148  0.69241326  1
  Au  Au880  1  0.62830587  0.70636199  0.72381072  1
  Au  Au881  1  0.55515318  0.65477148  0.78660569  1
  Au  Au882  1  0.33569514  0.50000001  0.21339431  1
  Au  Au883  1  0.44484681  0.34522851  0.21339431  1
  Au  Au884  1  0.26254245  0.44840950  0.27618927  1
  Au  Au885  1  0.66430487  0.50000001  0.78660569  1
  Au  Au886  1  0.57315268  0.55159049  0.81800319  1
