# generated using pymatgen
data_Pt599Au304
_symmetry_space_group_name_H-M   'P 1'
_cell_length_a   45.00000000
_cell_length_b   45.00000000
_cell_length_c   45.00000000
_cell_angle_alpha   90.00000000
_cell_angle_beta   90.00000000
_cell_angle_gamma   90.00000000
_symmetry_Int_Tables_number   1
_chemical_formula_structural   Pt599Au304
_chemical_formula_sum   'Pt599 Au304'
_cell_volume   91125.00000000
_cell_formula_units_Z   1
loop_
 _symmetry_equiv_pos_site_id
 _symmetry_equiv_pos_as_xyz
  1  'x, y, z'
loop_
 _atom_site_type_symbol
 _atom_site_label
 _atom_site_symmetry_multiplicity
 _atom_site_fract_x
 _atom_site_fract_y
 _atom_site_fract_z
 _atom_site_occupancy
  Pt  Pt0  1  0.50000000  0.50000000  0.50108719  1
  Pt  Pt1  1  0.45550369  0.50000000  0.45696286  1
  Pt  Pt2  1  0.54449631  0.50000000  0.45696286  1
  Pt  Pt3  1  0.50000000  0.54449631  0.45622788  1
  Pt  Pt4  1  0.50000000  0.45550369  0.45622788  1
  Pt  Pt5  1  0.45550369  0.45550369  0.50108719  1
  Pt  Pt6  1  0.45550369  0.54449631  0.50108719  1
  Pt  Pt7  1  0.54449631  0.45550369  0.50108719  1
  Pt  Pt8  1  0.54449631  0.54449631  0.50108719  1
  Pt  Pt9  1  0.45550369  0.50000000  0.54755956  1
  Pt  Pt10  1  0.50000000  0.54449631  0.54755956  1
  Pt  Pt11  1  0.50000000  0.45550369  0.54755956  1
  Pt  Pt12  1  0.54449631  0.50000000  0.54755956  1
  Pt  Pt13  1  0.50000000  0.50000000  0.41210797  1
  Pt  Pt14  1  0.41100738  0.50000000  0.50108719  1
  Pt  Pt15  1  0.50000000  0.58899262  0.50108719  1
  Pt  Pt16  1  0.50000000  0.41100738  0.50108719  1
  Pt  Pt17  1  0.58899262  0.50000000  0.50108719  1
  Pt  Pt18  1  0.50000000  0.50000000  0.59403188  1
  Pt  Pt19  1  0.45550369  0.45550369  0.41210797  1
  Pt  Pt20  1  0.45550369  0.54449631  0.41210797  1
  Pt  Pt21  1  0.54449631  0.45550369  0.41210797  1
  Pt  Pt22  1  0.54449631  0.54449631  0.41210797  1
  Pt  Pt23  1  0.45550369  0.58899262  0.45696286  1
  Pt  Pt24  1  0.45550369  0.41100738  0.45696286  1
  Pt  Pt25  1  0.54449631  0.58899262  0.45696286  1
  Pt  Pt26  1  0.54449631  0.41100738  0.45696286  1
  Pt  Pt27  1  0.41100738  0.45550369  0.45622788  1
  Pt  Pt28  1  0.41100738  0.54449631  0.45622788  1
  Pt  Pt29  1  0.58899262  0.54449631  0.45622788  1
  Pt  Pt30  1  0.58899262  0.45550369  0.45622788  1
  Pt  Pt31  1  0.45550369  0.58899262  0.54755956  1
  Pt  Pt32  1  0.41100738  0.45550369  0.54755956  1
  Pt  Pt33  1  0.41100738  0.54449631  0.54755956  1
  Pt  Pt34  1  0.54449631  0.58899262  0.54755956  1
  Pt  Pt35  1  0.45550369  0.41100738  0.54755956  1
  Pt  Pt36  1  0.58899262  0.45550369  0.54755956  1
  Pt  Pt37  1  0.58899262  0.54449631  0.54755956  1
  Pt  Pt38  1  0.54449631  0.41100738  0.54755956  1
  Pt  Pt39  1  0.45550369  0.45550369  0.59403188  1
  Pt  Pt40  1  0.45550369  0.54449631  0.59403188  1
  Pt  Pt41  1  0.54449631  0.45550369  0.59403188  1
  Pt  Pt42  1  0.54449631  0.54449631  0.59403188  1
  Pt  Pt43  1  0.50000000  0.58899262  0.41210797  1
  Pt  Pt44  1  0.41100738  0.50000000  0.41210797  1
  Pt  Pt45  1  0.50000000  0.41100738  0.41210797  1
  Pt  Pt46  1  0.58899262  0.50000000  0.41210797  1
  Pt  Pt47  1  0.41100738  0.58899262  0.50108719  1
  Pt  Pt48  1  0.58899262  0.58899262  0.50108719  1
  Pt  Pt49  1  0.41100738  0.41100738  0.50108719  1
  Pt  Pt50  1  0.58899262  0.41100738  0.50108719  1
  Pt  Pt51  1  0.50000000  0.58899262  0.59403188  1
  Pt  Pt52  1  0.41100738  0.50000000  0.59403188  1
  Pt  Pt53  1  0.58899262  0.50000000  0.59403188  1
  Pt  Pt54  1  0.50000000  0.41100738  0.59403188  1
  Pt  Pt55  1  0.50000000  0.45550369  0.36798821  1
  Pt  Pt56  1  0.50000000  0.54449631  0.36798821  1
  Pt  Pt57  1  0.45550369  0.50000000  0.36725322  1
  Pt  Pt58  1  0.54449631  0.50000000  0.36725322  1
  Pt  Pt59  1  0.36651107  0.50000000  0.45696286  1
  Pt  Pt60  1  0.63348893  0.50000000  0.45696286  1
  Pt  Pt61  1  0.50000000  0.63348893  0.45622788  1
  Pt  Pt62  1  0.50000000  0.36651107  0.45622788  1
  Pt  Pt63  1  0.45550369  0.63348893  0.50108719  1
  Pt  Pt64  1  0.36651107  0.45550369  0.50108719  1
  Pt  Pt65  1  0.36651107  0.54449631  0.50108719  1
  Pt  Pt66  1  0.54449631  0.63348893  0.50108719  1
  Pt  Pt67  1  0.45550369  0.36651107  0.50108719  1
  Pt  Pt68  1  0.63348893  0.45550369  0.50108719  1
  Pt  Pt69  1  0.63348893  0.54449631  0.50108719  1
  Pt  Pt70  1  0.54449631  0.36651107  0.50108719  1
  Pt  Pt71  1  0.50000000  0.63348893  0.54755956  1
  Pt  Pt72  1  0.36651107  0.50000000  0.54755956  1
  Pt  Pt73  1  0.63348893  0.50000000  0.54755956  1
  Pt  Pt74  1  0.50000000  0.36651107  0.54755956  1
  Pt  Pt75  1  0.45550369  0.50000000  0.63815631  1
  Pt  Pt76  1  0.54449631  0.50000000  0.63815631  1
  Pt  Pt77  1  0.50000000  0.45550369  0.63889130  1
  Pt  Pt78  1  0.50000000  0.54449631  0.63889130  1
  Pt  Pt79  1  0.41100738  0.58899262  0.41210797  1
  Pt  Pt80  1  0.41100738  0.41100738  0.41210797  1
  Pt  Pt81  1  0.58899262  0.58899262  0.41210797  1
  Pt  Pt82  1  0.58899262  0.41100738  0.41210797  1
  Pt  Pt83  1  0.41100738  0.58899262  0.59403188  1
  Pt  Pt84  1  0.58899262  0.58899262  0.59403188  1
  Pt  Pt85  1  0.41100738  0.41100738  0.59403188  1
  Pt  Pt86  1  0.58899262  0.41100738  0.59403188  1
  Pt  Pt87  1  0.41100738  0.45550369  0.36798821  1
  Pt  Pt88  1  0.41100738  0.54449631  0.36798821  1
  Pt  Pt89  1  0.58899262  0.54449631  0.36798821  1
  Pt  Pt90  1  0.58899262  0.45550369  0.36798821  1
  Pt  Pt91  1  0.45550369  0.58899262  0.36725322  1
  Pt  Pt92  1  0.54449631  0.58899262  0.36725322  1
  Pt  Pt93  1  0.45550369  0.41100738  0.36725322  1
  Pt  Pt94  1  0.54449631  0.41100738  0.36725322  1
  Pt  Pt95  1  0.45550369  0.63348893  0.41210797  1
  Pt  Pt96  1  0.36651107  0.45550369  0.41210797  1
  Pt  Pt97  1  0.36651107  0.54449631  0.41210797  1
  Pt  Pt98  1  0.54449631  0.63348893  0.41210797  1
  Pt  Pt99  1  0.45550369  0.36651107  0.41210797  1
  Pt  Pt100  1  0.63348893  0.45550369  0.41210797  1
  Pt  Pt101  1  0.63348893  0.54449631  0.41210797  1
  Pt  Pt102  1  0.54449631  0.36651107  0.41210797  1
  Pt  Pt103  1  0.36651107  0.58899262  0.45696286  1
  Pt  Pt104  1  0.36651107  0.41100738  0.45696286  1
  Pt  Pt105  1  0.63348893  0.58899262  0.45696286  1
  Pt  Pt106  1  0.63348893  0.41100738  0.45696286  1
  Pt  Pt107  1  0.41100738  0.63348893  0.45622788  1
  Pt  Pt108  1  0.58899262  0.63348893  0.45622788  1
  Pt  Pt109  1  0.41100738  0.36651107  0.45622788  1
  Pt  Pt110  1  0.58899262  0.36651107  0.45622788  1
  Pt  Pt111  1  0.36651107  0.58899262  0.54755956  1
  Pt  Pt112  1  0.41100738  0.63348893  0.54755956  1
  Pt  Pt113  1  0.36651107  0.41100738  0.54755956  1
  Pt  Pt114  1  0.58899262  0.63348893  0.54755956  1
  Pt  Pt115  1  0.41100738  0.36651107  0.54755956  1
  Pt  Pt116  1  0.63348893  0.58899262  0.54755956  1
  Pt  Pt117  1  0.63348893  0.41100738  0.54755956  1
  Pt  Pt118  1  0.58899262  0.36651107  0.54755956  1
  Pt  Pt119  1  0.45550369  0.63348893  0.59403188  1
  Pt  Pt120  1  0.36651107  0.45550369  0.59403188  1
  Pt  Pt121  1  0.36651107  0.54449631  0.59403188  1
  Pt  Pt122  1  0.54449631  0.63348893  0.59403188  1
  Pt  Pt123  1  0.45550369  0.36651107  0.59403188  1
  Pt  Pt124  1  0.63348893  0.45550369  0.59403188  1
  Pt  Pt125  1  0.63348893  0.54449631  0.59403188  1
  Pt  Pt126  1  0.54449631  0.36651107  0.59403188  1
  Pt  Pt127  1  0.45550369  0.58899262  0.63815631  1
  Pt  Pt128  1  0.54449631  0.58899262  0.63815631  1
  Pt  Pt129  1  0.45550369  0.41100738  0.63815631  1
  Pt  Pt130  1  0.54449631  0.41100738  0.63815631  1
  Pt  Pt131  1  0.41100738  0.54449631  0.63889130  1
  Pt  Pt132  1  0.41100738  0.45550369  0.63889130  1
  Pt  Pt133  1  0.58899262  0.54449631  0.63889130  1
  Pt  Pt134  1  0.58899262  0.45550369  0.63889130  1
  Pt  Pt135  1  0.50000000  0.50000000  0.32312879  1
  Pt  Pt136  1  0.32201476  0.50000000  0.50108719  1
  Pt  Pt137  1  0.50000000  0.32201476  0.50108719  1
  Pt  Pt138  1  0.50000000  0.67798524  0.50108719  1
  Pt  Pt139  1  0.67798524  0.50000000  0.50108719  1
  Pt  Pt140  1  0.50000000  0.50000000  0.68301106  1
  Pt  Pt141  1  0.45550369  0.54449631  0.32312879  1
  Pt  Pt142  1  0.45550369  0.45550369  0.32312879  1
  Pt  Pt143  1  0.54449631  0.45550369  0.32312879  1
  Pt  Pt144  1  0.54449631  0.54449631  0.32312879  1
  Pt  Pt145  1  0.50000000  0.63348893  0.36798821  1
  Pt  Pt146  1  0.50000000  0.36651107  0.36798821  1
  Pt  Pt147  1  0.36651107  0.50000000  0.36725322  1
  Pt  Pt148  1  0.63348893  0.50000000  0.36725322  1
  Pt  Pt149  1  0.45550369  0.32201476  0.45696286  1
  Pt  Pt150  1  0.54449631  0.32201476  0.45696286  1
  Pt  Pt151  1  0.54449631  0.67798524  0.45696286  1
  Pt  Pt152  1  0.45550369  0.67798524  0.45696286  1
  Pt  Pt153  1  0.32201476  0.45550369  0.45622788  1
  Pt  Pt154  1  0.32201476  0.54449631  0.45622788  1
  Pt  Pt155  1  0.67798524  0.54449631  0.45622788  1
  Pt  Pt156  1  0.67798524  0.45550369  0.45622788  1
  Pt  Pt157  1  0.36651107  0.63348893  0.50108719  1
  Pt  Pt158  1  0.36651107  0.36651107  0.50108719  1
  Pt  Pt159  1  0.63348893  0.63348893  0.50108719  1
  Pt  Pt160  1  0.63348893  0.36651107  0.50108719  1
  Pt  Pt161  1  0.32201476  0.54449631  0.54755956  1
  Pt  Pt162  1  0.32201476  0.45550369  0.54755956  1
  Pt  Pt163  1  0.45550369  0.32201476  0.54755956  1
  Pt  Pt164  1  0.54449631  0.32201476  0.54755956  1
  Pt  Pt165  1  0.45550369  0.67798524  0.54755956  1
  Pt  Pt166  1  0.54449631  0.67798524  0.54755956  1
  Pt  Pt167  1  0.67798524  0.54449631  0.54755956  1
  Pt  Pt168  1  0.67798524  0.45550369  0.54755956  1
  Pt  Pt169  1  0.36651107  0.50000000  0.63815631  1
  Pt  Pt170  1  0.63348893  0.50000000  0.63815631  1
  Pt  Pt171  1  0.50000000  0.63348893  0.63889130  1
  Pt  Pt172  1  0.50000000  0.36651107  0.63889130  1
  Pt  Pt173  1  0.45550369  0.54449631  0.68301106  1
  Pt  Pt174  1  0.45550369  0.45550369  0.68301106  1
  Pt  Pt175  1  0.54449631  0.54449631  0.68301106  1
  Pt  Pt176  1  0.54449631  0.45550369  0.68301106  1
  Pt  Pt177  1  0.50000000  0.58899262  0.32312879  1
  Pt  Pt178  1  0.41100738  0.50000000  0.32312879  1
  Pt  Pt179  1  0.58899262  0.50000000  0.32312879  1
  Pt  Pt180  1  0.50000000  0.41100738  0.32312879  1
  Pt  Pt181  1  0.32201476  0.50000000  0.41210797  1
  Pt  Pt182  1  0.50000000  0.32201476  0.41210797  1
  Pt  Pt183  1  0.50000000  0.67798524  0.41210797  1
  Pt  Pt184  1  0.67798524  0.50000000  0.41210797  1
  Pt  Pt185  1  0.32201476  0.58899262  0.50108719  1
  Pt  Pt186  1  0.32201476  0.41100738  0.50108719  1
  Pt  Pt187  1  0.41100738  0.32201476  0.50108719  1
  Pt  Pt188  1  0.58899262  0.32201476  0.50108719  1
  Pt  Pt189  1  0.41100738  0.67798524  0.50108719  1
  Pt  Pt190  1  0.58899262  0.67798524  0.50108719  1
  Pt  Pt191  1  0.67798524  0.58899262  0.50108719  1
  Pt  Pt192  1  0.67798524  0.41100738  0.50108719  1
  Pt  Pt193  1  0.32201476  0.50000000  0.59403188  1
  Pt  Pt194  1  0.50000000  0.32201476  0.59403188  1
  Pt  Pt195  1  0.50000000  0.67798524  0.59403188  1
  Pt  Pt196  1  0.67798524  0.50000000  0.59403188  1
  Pt  Pt197  1  0.58899262  0.50000000  0.68301106  1
  Pt  Pt198  1  0.50000000  0.41100738  0.68301106  1
  Pt  Pt199  1  0.50000000  0.58899262  0.68301106  1
  Pt  Pt200  1  0.41100738  0.50000000  0.68301106  1
  Pt  Pt201  1  0.41100738  0.63348893  0.36798821  1
  Pt  Pt202  1  0.58899262  0.63348893  0.36798821  1
  Pt  Pt203  1  0.41100738  0.36651107  0.36798821  1
  Pt  Pt204  1  0.58899262  0.36651107  0.36798821  1
  Pt  Pt205  1  0.36651107  0.58899262  0.36725322  1
  Pt  Pt206  1  0.36651107  0.41100738  0.36725322  1
  Pt  Pt207  1  0.63348893  0.58899262  0.36725322  1
  Pt  Pt208  1  0.63348893  0.41100738  0.36725322  1
  Pt  Pt209  1  0.36651107  0.63348893  0.41210797  1
  Pt  Pt210  1  0.63348893  0.63348893  0.41210797  1
  Pt  Pt211  1  0.36651107  0.36651107  0.41210797  1
  Pt  Pt212  1  0.63348893  0.36651107  0.41210797  1
  Pt  Pt213  1  0.36651107  0.63348893  0.59403188  1
  Pt  Pt214  1  0.63348893  0.63348893  0.59403188  1
  Pt  Pt215  1  0.36651107  0.36651107  0.59403188  1
  Pt  Pt216  1  0.63348893  0.36651107  0.59403188  1
  Pt  Pt217  1  0.36651107  0.58899262  0.63815631  1
  Pt  Pt218  1  0.36651107  0.41100738  0.63815631  1
  Pt  Pt219  1  0.63348893  0.58899262  0.63815631  1
  Pt  Pt220  1  0.63348893  0.41100738  0.63815631  1
  Pt  Pt221  1  0.41100738  0.63348893  0.63889130  1
  Pt  Pt222  1  0.58899262  0.63348893  0.63889130  1
  Pt  Pt223  1  0.41100738  0.36651107  0.63889130  1
  Pt  Pt224  1  0.58899262  0.36651107  0.63889130  1
  Pt  Pt225  1  0.41100738  0.58899262  0.32312879  1
  Pt  Pt226  1  0.58899262  0.58899262  0.32312879  1
  Pt  Pt227  1  0.41100738  0.41100738  0.32312879  1
  Pt  Pt228  1  0.58899262  0.41100738  0.32312879  1
  Pt  Pt229  1  0.32201476  0.58899262  0.41210797  1
  Pt  Pt230  1  0.32201476  0.41100738  0.41210797  1
  Pt  Pt231  1  0.41100738  0.32201476  0.41210797  1
  Pt  Pt232  1  0.58899262  0.32201476  0.41210797  1
  Pt  Pt233  1  0.41100738  0.67798524  0.41210797  1
  Pt  Pt234  1  0.58899262  0.67798524  0.41210797  1
  Pt  Pt235  1  0.67798524  0.58899262  0.41210797  1
  Pt  Pt236  1  0.67798524  0.41100738  0.41210797  1
  Pt  Pt237  1  0.32201476  0.58899262  0.59403188  1
  Pt  Pt238  1  0.32201476  0.41100738  0.59403188  1
  Pt  Pt239  1  0.41100738  0.32201476  0.59403188  1
  Pt  Pt240  1  0.41100738  0.67798524  0.59403188  1
  Pt  Pt241  1  0.58899262  0.32201476  0.59403188  1
  Pt  Pt242  1  0.58899262  0.67798524  0.59403188  1
  Pt  Pt243  1  0.67798524  0.58899262  0.59403188  1
  Pt  Pt244  1  0.67798524  0.41100738  0.59403188  1
  Pt  Pt245  1  0.41100738  0.58899262  0.68301106  1
  Pt  Pt246  1  0.41100738  0.41100738  0.68301106  1
  Pt  Pt247  1  0.58899262  0.58899262  0.68301106  1
  Pt  Pt248  1  0.58899262  0.41100738  0.68301106  1
  Pt  Pt249  1  0.54449631  0.63348893  0.32312879  1
  Pt  Pt250  1  0.45550369  0.63348893  0.32312879  1
  Pt  Pt251  1  0.36651107  0.54449631  0.32312879  1
  Pt  Pt252  1  0.63348893  0.54449631  0.32312879  1
  Pt  Pt253  1  0.63348893  0.45550369  0.32312879  1
  Pt  Pt254  1  0.36651107  0.45550369  0.32312879  1
  Pt  Pt255  1  0.54449631  0.36651107  0.32312879  1
  Pt  Pt256  1  0.45550369  0.36651107  0.32312879  1
  Pt  Pt257  1  0.32201476  0.54449631  0.36798821  1
  Pt  Pt258  1  0.32201476  0.45550369  0.36798821  1
  Pt  Pt259  1  0.67798524  0.54449631  0.36798821  1
  Pt  Pt260  1  0.67798524  0.45550369  0.36798821  1
  Pt  Pt261  1  0.45550369  0.32201476  0.36725322  1
  Pt  Pt262  1  0.54449631  0.32201476  0.36725322  1
  Pt  Pt263  1  0.45550369  0.67798524  0.36725322  1
  Pt  Pt264  1  0.54449631  0.67798524  0.36725322  1
  Pt  Pt265  1  0.36651107  0.32201476  0.45696286  1
  Pt  Pt266  1  0.36651107  0.67798524  0.45696286  1
  Pt  Pt267  1  0.63348893  0.32201476  0.45696286  1
  Pt  Pt268  1  0.63348893  0.67798524  0.45696286  1
  Pt  Pt269  1  0.27751844  0.50000000  0.45696286  1
  Pt  Pt270  1  0.72248156  0.50000000  0.45696286  1
  Pt  Pt271  1  0.32201476  0.63348893  0.45622788  1
  Pt  Pt272  1  0.32201476  0.36651107  0.45622788  1
  Pt  Pt273  1  0.67798524  0.63348893  0.45622788  1
  Pt  Pt274  1  0.67798524  0.36651107  0.45622788  1
  Pt  Pt275  1  0.50000000  0.72248156  0.45622788  1
  Pt  Pt276  1  0.50000000  0.27751844  0.45622788  1
  Pt  Pt277  1  0.45550369  0.72248156  0.50108719  1
  Pt  Pt278  1  0.27751844  0.54449631  0.50108719  1
  Pt  Pt279  1  0.27751844  0.45550369  0.50108719  1
  Pt  Pt280  1  0.54449631  0.72248156  0.50108719  1
  Pt  Pt281  1  0.72248156  0.45550369  0.50108719  1
  Pt  Pt282  1  0.45550369  0.27751844  0.50108719  1
  Pt  Pt283  1  0.54449631  0.27751844  0.50108719  1
  Pt  Pt284  1  0.72248156  0.54449631  0.50108719  1
  Pt  Pt285  1  0.32201476  0.63348893  0.54755956  1
  Pt  Pt286  1  0.36651107  0.32201476  0.54755956  1
  Pt  Pt287  1  0.32201476  0.36651107  0.54755956  1
  Pt  Pt288  1  0.36651107  0.67798524  0.54755956  1
  Pt  Pt289  1  0.63348893  0.32201476  0.54755956  1
  Pt  Pt290  1  0.63348893  0.67798524  0.54755956  1
  Pt  Pt291  1  0.67798524  0.63348893  0.54755956  1
  Pt  Pt292  1  0.67798524  0.36651107  0.54755956  1
  Pt  Pt293  1  0.27751844  0.50000000  0.54755956  1
  Pt  Pt294  1  0.50000000  0.72248156  0.54755956  1
  Pt  Pt295  1  0.50000000  0.27751844  0.54755956  1
  Pt  Pt296  1  0.72248156  0.50000000  0.54755956  1
  Pt  Pt297  1  0.54449631  0.50000000  0.27665647  1
  Pt  Pt298  1  0.50000000  0.45550369  0.27665647  1
  Pt  Pt299  1  0.50000000  0.54449631  0.27665647  1
  Pt  Pt300  1  0.45550369  0.50000000  0.27665647  1
  Pt  Pt301  1  0.45550369  0.32201476  0.63815631  1
  Pt  Pt302  1  0.54449631  0.32201476  0.63815631  1
  Pt  Pt303  1  0.45550369  0.67798524  0.63815631  1
  Pt  Pt304  1  0.54449631  0.67798524  0.63815631  1
  Pt  Pt305  1  0.32201476  0.54449631  0.63889130  1
  Pt  Pt306  1  0.32201476  0.45550369  0.63889130  1
  Pt  Pt307  1  0.67798524  0.45550369  0.63889130  1
  Pt  Pt308  1  0.67798524  0.54449631  0.63889130  1
  Pt  Pt309  1  0.45550369  0.36651107  0.68301106  1
  Pt  Pt310  1  0.45550369  0.63348893  0.68301106  1
  Pt  Pt311  1  0.54449631  0.63348893  0.68301106  1
  Pt  Pt312  1  0.36651107  0.45550369  0.68301106  1
  Pt  Pt313  1  0.36651107  0.54449631  0.68301106  1
  Pt  Pt314  1  0.63348893  0.45550369  0.68301106  1
  Pt  Pt315  1  0.54449631  0.36651107  0.68301106  1
  Pt  Pt316  1  0.63348893  0.54449631  0.68301106  1
  Pt  Pt317  1  0.50000000  0.54449631  0.72713097  1
  Pt  Pt318  1  0.50000000  0.45550369  0.72713097  1
  Pt  Pt319  1  0.45550369  0.50000000  0.72786595  1
  Pt  Pt320  1  0.54449631  0.50000000  0.72786595  1
  Pt  Pt321  1  0.72248156  0.45550369  0.41210797  1
  Pt  Pt322  1  0.27751844  0.45550369  0.41210797  1
  Pt  Pt323  1  0.27751844  0.54449631  0.41210797  1
  Pt  Pt324  1  0.45550369  0.72248156  0.41210797  1
  Pt  Pt325  1  0.54449631  0.72248156  0.41210797  1
  Pt  Pt326  1  0.54449631  0.27751844  0.41210797  1
  Pt  Pt327  1  0.45550369  0.27751844  0.41210797  1
  Pt  Pt328  1  0.72248156  0.54449631  0.41210797  1
  Pt  Pt329  1  0.27751844  0.58899262  0.45696286  1
  Pt  Pt330  1  0.72248156  0.41100738  0.45696286  1
  Pt  Pt331  1  0.27751844  0.41100738  0.45696286  1
  Pt  Pt332  1  0.72248156  0.58899262  0.45696286  1
  Pt  Pt333  1  0.41100738  0.72248156  0.45622788  1
  Pt  Pt334  1  0.58899262  0.72248156  0.45622788  1
  Pt  Pt335  1  0.58899262  0.27751844  0.45622788  1
  Pt  Pt336  1  0.41100738  0.27751844  0.45622788  1
  Pt  Pt337  1  0.41100738  0.72248156  0.54755956  1
  Pt  Pt338  1  0.27751844  0.58899262  0.54755956  1
  Pt  Pt339  1  0.58899262  0.72248156  0.54755956  1
  Pt  Pt340  1  0.72248156  0.41100738  0.54755956  1
  Pt  Pt341  1  0.27751844  0.41100738  0.54755956  1
  Pt  Pt342  1  0.41100738  0.27751844  0.54755956  1
  Pt  Pt343  1  0.58899262  0.27751844  0.54755956  1
  Pt  Pt344  1  0.72248156  0.58899262  0.54755956  1
  Pt  Pt345  1  0.45550369  0.58899262  0.27665647  1
  Pt  Pt346  1  0.54449631  0.58899262  0.27665647  1
  Pt  Pt347  1  0.58899262  0.45550369  0.27665647  1
  Pt  Pt348  1  0.58899262  0.54449631  0.27665647  1
  Pt  Pt349  1  0.45550369  0.41100738  0.27665647  1
  Pt  Pt350  1  0.41100738  0.54449631  0.27665647  1
  Pt  Pt351  1  0.41100738  0.45550369  0.27665647  1
  Pt  Pt352  1  0.54449631  0.41100738  0.27665647  1
  Pt  Pt353  1  0.45550369  0.72248156  0.59403188  1
  Pt  Pt354  1  0.54449631  0.72248156  0.59403188  1
  Pt  Pt355  1  0.27751844  0.45550369  0.59403188  1
  Pt  Pt356  1  0.27751844  0.54449631  0.59403188  1
  Pt  Pt357  1  0.72248156  0.45550369  0.59403188  1
  Pt  Pt358  1  0.45550369  0.27751844  0.59403188  1
  Pt  Pt359  1  0.54449631  0.27751844  0.59403188  1
  Pt  Pt360  1  0.72248156  0.54449631  0.59403188  1
  Pt  Pt361  1  0.58899262  0.45550369  0.72713097  1
  Pt  Pt362  1  0.58899262  0.54449631  0.72713097  1
  Pt  Pt363  1  0.41100738  0.45550369  0.72713097  1
  Pt  Pt364  1  0.41100738  0.54449631  0.72713097  1
  Pt  Pt365  1  0.54449631  0.58899262  0.72786595  1
  Pt  Pt366  1  0.45550369  0.58899262  0.72786595  1
  Pt  Pt367  1  0.45550369  0.41100738  0.72786595  1
  Pt  Pt368  1  0.54449631  0.41100738  0.72786595  1
  Pt  Pt369  1  0.32201476  0.50000000  0.32312879  1
  Pt  Pt370  1  0.50000000  0.32201476  0.32312879  1
  Pt  Pt371  1  0.50000000  0.67798524  0.32312879  1
  Pt  Pt372  1  0.67798524  0.50000000  0.32312879  1
  Pt  Pt373  1  0.32201476  0.67798524  0.50108719  1
  Pt  Pt374  1  0.32201476  0.32201476  0.50108719  1
  Pt  Pt375  1  0.67798524  0.32201476  0.50108719  1
  Pt  Pt376  1  0.67798524  0.67798524  0.50108719  1
  Pt  Pt377  1  0.32201476  0.50000000  0.68301106  1
  Pt  Pt378  1  0.50000000  0.32201476  0.68301106  1
  Pt  Pt379  1  0.50000000  0.67798524  0.68301106  1
  Pt  Pt380  1  0.67798524  0.50000000  0.68301106  1
  Pt  Pt381  1  0.36651107  0.63348893  0.32312879  1
  Pt  Pt382  1  0.63348893  0.63348893  0.32312879  1
  Pt  Pt383  1  0.36651107  0.36651107  0.32312879  1
  Pt  Pt384  1  0.63348893  0.36651107  0.32312879  1
  Pt  Pt385  1  0.32201476  0.63348893  0.36798821  1
  Pt  Pt386  1  0.32201476  0.36651107  0.36798821  1
  Pt  Pt387  1  0.67798524  0.63348893  0.36798821  1
  Pt  Pt388  1  0.67798524  0.36651107  0.36798821  1
  Pt  Pt389  1  0.50000000  0.72248156  0.36798821  1
  Pt  Pt390  1  0.50000000  0.27751844  0.36798821  1
  Pt  Pt391  1  0.63348893  0.32201476  0.36725322  1
  Pt  Pt392  1  0.36651107  0.32201476  0.36725322  1
  Pt  Pt393  1  0.36651107  0.67798524  0.36725322  1
  Pt  Pt394  1  0.63348893  0.67798524  0.36725322  1
  Pt  Pt395  1  0.27751844  0.50000000  0.36725322  1
  Pt  Pt396  1  0.72248156  0.50000000  0.36725322  1
  Pt  Pt397  1  0.27751844  0.63348893  0.50108719  1
  Pt  Pt398  1  0.36651107  0.72248156  0.50108719  1
  Pt  Pt399  1  0.72248156  0.36651107  0.50108719  1
  Pt  Pt400  1  0.63348893  0.72248156  0.50108719  1
  Pt  Pt401  1  0.36651107  0.27751844  0.50108719  1
  Pt  Pt402  1  0.27751844  0.36651107  0.50108719  1
  Pt  Pt403  1  0.63348893  0.27751844  0.50108719  1
  Pt  Pt404  1  0.72248156  0.63348893  0.50108719  1
  Pt  Pt405  1  0.50000000  0.63348893  0.27665647  1
  Pt  Pt406  1  0.36651107  0.50000000  0.27665647  1
  Pt  Pt407  1  0.63348893  0.50000000  0.27665647  1
  Pt  Pt408  1  0.50000000  0.36651107  0.27665647  1
  Pt  Pt409  1  0.63348893  0.32201476  0.63815631  1
  Pt  Pt410  1  0.36651107  0.32201476  0.63815631  1
  Pt  Pt411  1  0.36651107  0.67798524  0.63815631  1
  Pt  Pt412  1  0.63348893  0.67798524  0.63815631  1
  Pt  Pt413  1  0.27751844  0.50000000  0.63815631  1
  Pt  Pt414  1  0.72248156  0.50000000  0.63815631  1
  Pt  Pt415  1  0.32201476  0.63348893  0.63889130  1
  Pt  Pt416  1  0.32201476  0.36651107  0.63889130  1
  Pt  Pt417  1  0.67798524  0.63348893  0.63889130  1
  Pt  Pt418  1  0.67798524  0.36651107  0.63889130  1
  Pt  Pt419  1  0.50000000  0.72248156  0.63889130  1
  Pt  Pt420  1  0.50000000  0.27751844  0.63889130  1
  Pt  Pt421  1  0.36651107  0.63348893  0.68301106  1
  Pt  Pt422  1  0.63348893  0.63348893  0.68301106  1
  Pt  Pt423  1  0.36651107  0.36651107  0.68301106  1
  Pt  Pt424  1  0.63348893  0.36651107  0.68301106  1
  Pt  Pt425  1  0.50000000  0.63348893  0.72713097  1
  Pt  Pt426  1  0.50000000  0.36651107  0.72713097  1
  Pt  Pt427  1  0.36651107  0.50000000  0.72786595  1
  Pt  Pt428  1  0.63348893  0.50000000  0.72786595  1
  Pt  Pt429  1  0.32201476  0.58899262  0.32312879  1
  Pt  Pt430  1  0.32201476  0.41100738  0.32312879  1
  Pt  Pt431  1  0.41100738  0.67798524  0.32312879  1
  Pt  Pt432  1  0.41100738  0.32201476  0.32312879  1
  Pt  Pt433  1  0.58899262  0.32201476  0.32312879  1
  Pt  Pt434  1  0.58899262  0.67798524  0.32312879  1
  Pt  Pt435  1  0.67798524  0.41100738  0.32312879  1
  Pt  Pt436  1  0.67798524  0.58899262  0.32312879  1
  Pt  Pt437  1  0.32201476  0.32201476  0.41210797  1
  Pt  Pt438  1  0.32201476  0.67798524  0.41210797  1
  Pt  Pt439  1  0.67798524  0.32201476  0.41210797  1
  Pt  Pt440  1  0.67798524  0.67798524  0.41210797  1
  Pt  Pt441  1  0.23302213  0.50000000  0.50108719  1
  Pt  Pt442  1  0.50000000  0.76697787  0.50108719  1
  Pt  Pt443  1  0.50000000  0.23302213  0.50108719  1
  Pt  Pt444  1  0.76697787  0.50000000  0.50108719  1
  Pt  Pt445  1  0.32201476  0.32201476  0.59403188  1
  Pt  Pt446  1  0.32201476  0.67798524  0.59403188  1
  Pt  Pt447  1  0.67798524  0.32201476  0.59403188  1
  Pt  Pt448  1  0.67798524  0.67798524  0.59403188  1
  Pt  Pt449  1  0.50000000  0.50000000  0.23018410  1
  Pt  Pt450  1  0.32201476  0.58899262  0.68301106  1
  Pt  Pt451  1  0.32201476  0.41100738  0.68301106  1
  Pt  Pt452  1  0.41100738  0.32201476  0.68301106  1
  Pt  Pt453  1  0.58899262  0.32201476  0.68301106  1
  Pt  Pt454  1  0.41100738  0.67798524  0.68301106  1
  Pt  Pt455  1  0.67798524  0.58899262  0.68301106  1
  Pt  Pt456  1  0.58899262  0.67798524  0.68301106  1
  Pt  Pt457  1  0.67798524  0.41100738  0.68301106  1
  Pt  Pt458  1  0.50000000  0.50000000  0.77199028  1
  Pt  Pt459  1  0.58899262  0.72248156  0.36798821  1
  Pt  Pt460  1  0.41100738  0.72248156  0.36798821  1
  Pt  Pt461  1  0.41100738  0.27751844  0.36798821  1
  Pt  Pt462  1  0.58899262  0.27751844  0.36798821  1
  Pt  Pt463  1  0.27751844  0.41100738  0.36725322  1
  Pt  Pt464  1  0.72248156  0.41100738  0.36725322  1
  Pt  Pt465  1  0.27751844  0.58899262  0.36725322  1
  Pt  Pt466  1  0.72248156  0.58899262  0.36725322  1
  Pt  Pt467  1  0.27751844  0.63348893  0.41210797  1
  Pt  Pt468  1  0.36651107  0.72248156  0.41210797  1
  Pt  Pt469  1  0.63348893  0.72248156  0.41210797  1
  Pt  Pt470  1  0.72248156  0.36651107  0.41210797  1
  Pt  Pt471  1  0.36651107  0.27751844  0.41210797  1
  Pt  Pt472  1  0.27751844  0.36651107  0.41210797  1
  Pt  Pt473  1  0.72248156  0.63348893  0.41210797  1
  Pt  Pt474  1  0.63348893  0.27751844  0.41210797  1
  Pt  Pt475  1  0.45550369  0.76697787  0.45696286  1
  Pt  Pt476  1  0.54449631  0.76697787  0.45696286  1
  Pt  Pt477  1  0.45550369  0.23302213  0.45696286  1
  Pt  Pt478  1  0.54449631  0.23302213  0.45696286  1
  Pt  Pt479  1  0.23302213  0.54449631  0.45622788  1
  Pt  Pt480  1  0.76697787  0.45550369  0.45622788  1
  Pt  Pt481  1  0.23302213  0.45550369  0.45622788  1
  Pt  Pt482  1  0.76697787  0.54449631  0.45622788  1
  Pt  Pt483  1  0.76697787  0.45550369  0.54755956  1
  Pt  Pt484  1  0.45550369  0.76697787  0.54755956  1
  Pt  Pt485  1  0.23302213  0.45550369  0.54755956  1
  Pt  Pt486  1  0.23302213  0.54449631  0.54755956  1
  Pt  Pt487  1  0.54449631  0.76697787  0.54755956  1
  Pt  Pt488  1  0.45550369  0.23302213  0.54755956  1
  Pt  Pt489  1  0.54449631  0.23302213  0.54755956  1
  Pt  Pt490  1  0.76697787  0.54449631  0.54755956  1
  Pt  Pt491  1  0.41100738  0.63348893  0.27665647  1
  Pt  Pt492  1  0.58899262  0.63348893  0.27665647  1
  Pt  Pt493  1  0.36651107  0.41100738  0.27665647  1
  Pt  Pt494  1  0.63348893  0.58899262  0.27665647  1
  Pt  Pt495  1  0.36651107  0.58899262  0.27665647  1
  Pt  Pt496  1  0.58899262  0.36651107  0.27665647  1
  Pt  Pt497  1  0.41100738  0.36651107  0.27665647  1
  Pt  Pt498  1  0.63348893  0.41100738  0.27665647  1
  Pt  Pt499  1  0.27751844  0.63348893  0.59403188  1
  Pt  Pt500  1  0.36651107  0.72248156  0.59403188  1
  Pt  Pt501  1  0.63348893  0.72248156  0.59403188  1
  Pt  Pt502  1  0.36651107  0.27751844  0.59403188  1
  Pt  Pt503  1  0.27751844  0.36651107  0.59403188  1
  Pt  Pt504  1  0.72248156  0.36651107  0.59403188  1
  Pt  Pt505  1  0.72248156  0.63348893  0.59403188  1
  Pt  Pt506  1  0.63348893  0.27751844  0.59403188  1
  Pt  Pt507  1  0.27751844  0.58899262  0.63815631  1
  Pt  Pt508  1  0.72248156  0.41100738  0.63815631  1
  Pt  Pt509  1  0.27751844  0.41100738  0.63815631  1
  Pt  Pt510  1  0.72248156  0.58899262  0.63815631  1
  Pt  Pt511  1  0.58899262  0.72248156  0.63889130  1
  Pt  Pt512  1  0.41100738  0.72248156  0.63889130  1
  Pt  Pt513  1  0.58899262  0.27751844  0.63889130  1
  Pt  Pt514  1  0.41100738  0.27751844  0.63889130  1
  Pt  Pt515  1  0.54449631  0.45550369  0.23018410  1
  Pt  Pt516  1  0.45550369  0.54449631  0.23018410  1
  Pt  Pt517  1  0.54449631  0.54449631  0.23018410  1
  Pt  Pt518  1  0.45550369  0.45550369  0.23018410  1
  Pt  Pt519  1  0.41100738  0.63348893  0.72713097  1
  Pt  Pt520  1  0.58899262  0.63348893  0.72713097  1
  Pt  Pt521  1  0.58899262  0.36651107  0.72713097  1
  Pt  Pt522  1  0.41100738  0.36651107  0.72713097  1
  Pt  Pt523  1  0.36651107  0.58899262  0.72786595  1
  Pt  Pt524  1  0.36651107  0.41100738  0.72786595  1
  Pt  Pt525  1  0.63348893  0.58899262  0.72786595  1
  Pt  Pt526  1  0.63348893  0.41100738  0.72786595  1
  Pt  Pt527  1  0.45550369  0.54449631  0.77199028  1
  Pt  Pt528  1  0.45550369  0.45550369  0.77199028  1
  Pt  Pt529  1  0.54449631  0.45550369  0.77199028  1
  Pt  Pt530  1  0.54449631  0.54449631  0.77199028  1
  Pt  Pt531  1  0.23302213  0.50000000  0.41210797  1
  Pt  Pt532  1  0.50000000  0.76697787  0.41210797  1
  Pt  Pt533  1  0.50000000  0.23302213  0.41210797  1
  Pt  Pt534  1  0.76697787  0.50000000  0.41210797  1
  Pt  Pt535  1  0.41100738  0.76697787  0.50108719  1
  Pt  Pt536  1  0.23302213  0.41100738  0.50108719  1
  Pt  Pt537  1  0.23302213  0.58899262  0.50108719  1
  Pt  Pt538  1  0.76697787  0.41100738  0.50108719  1
  Pt  Pt539  1  0.58899262  0.76697787  0.50108719  1
  Pt  Pt540  1  0.58899262  0.23302213  0.50108719  1
  Pt  Pt541  1  0.41100738  0.23302213  0.50108719  1
  Pt  Pt542  1  0.76697787  0.58899262  0.50108719  1
  Pt  Pt543  1  0.23302213  0.50000000  0.59403188  1
  Pt  Pt544  1  0.50000000  0.76697787  0.59403188  1
  Pt  Pt545  1  0.50000000  0.23302213  0.59403188  1
  Pt  Pt546  1  0.76697787  0.50000000  0.59403188  1
  Pt  Pt547  1  0.50000000  0.58899262  0.23018410  1
  Pt  Pt548  1  0.41100738  0.50000000  0.23018410  1
  Pt  Pt549  1  0.58899262  0.50000000  0.23018410  1
  Pt  Pt550  1  0.50000000  0.41100738  0.23018410  1
  Pt  Pt551  1  0.58899262  0.50000000  0.77199028  1
  Pt  Pt552  1  0.50000000  0.58899262  0.77199028  1
  Pt  Pt553  1  0.50000000  0.41100738  0.77199028  1
  Pt  Pt554  1  0.41100738  0.50000000  0.77199028  1
  Pt  Pt555  1  0.72248156  0.45550369  0.32312879  1
  Pt  Pt556  1  0.54449631  0.72248156  0.32312879  1
  Pt  Pt557  1  0.45550369  0.72248156  0.32312879  1
  Pt  Pt558  1  0.27751844  0.45550369  0.32312879  1
  Pt  Pt559  1  0.27751844  0.54449631  0.32312879  1
  Pt  Pt560  1  0.54449631  0.27751844  0.32312879  1
  Pt  Pt561  1  0.45550369  0.27751844  0.32312879  1
  Pt  Pt562  1  0.72248156  0.54449631  0.32312879  1
  Pt  Pt563  1  0.72248156  0.32201476  0.45696286  1
  Pt  Pt564  1  0.27751844  0.67798524  0.45696286  1
  Pt  Pt565  1  0.27751844  0.32201476  0.45696286  1
  Pt  Pt566  1  0.72248156  0.67798524  0.45696286  1
  Pt  Pt567  1  0.32201476  0.72248156  0.45622788  1
  Pt  Pt568  1  0.32201476  0.27751844  0.45622788  1
  Pt  Pt569  1  0.67798524  0.72248156  0.45622788  1
  Pt  Pt570  1  0.67798524  0.27751844  0.45622788  1
  Pt  Pt571  1  0.32201476  0.72248156  0.54755956  1
  Pt  Pt572  1  0.72248156  0.32201476  0.54755956  1
  Pt  Pt573  1  0.32201476  0.27751844  0.54755956  1
  Pt  Pt574  1  0.27751844  0.67798524  0.54755956  1
  Pt  Pt575  1  0.27751844  0.32201476  0.54755956  1
  Pt  Pt576  1  0.67798524  0.72248156  0.54755956  1
  Pt  Pt577  1  0.67798524  0.27751844  0.54755956  1
  Pt  Pt578  1  0.72248156  0.67798524  0.54755956  1
  Pt  Pt579  1  0.32201476  0.54449631  0.27665647  1
  Pt  Pt580  1  0.32201476  0.45550369  0.27665647  1
  Pt  Pt581  1  0.54449631  0.32201476  0.27665647  1
  Pt  Pt582  1  0.45550369  0.32201476  0.27665647  1
  Pt  Pt583  1  0.45550369  0.67798524  0.27665647  1
  Pt  Pt584  1  0.67798524  0.45550369  0.27665647  1
  Pt  Pt585  1  0.67798524  0.54449631  0.27665647  1
  Pt  Pt586  1  0.54449631  0.67798524  0.27665647  1
  Pt  Pt587  1  0.45550369  0.72248156  0.68301106  1
  Pt  Pt588  1  0.27751844  0.54449631  0.68301106  1
  Pt  Pt589  1  0.54449631  0.72248156  0.68301106  1
  Pt  Pt590  1  0.27751844  0.45550369  0.68301106  1
  Pt  Pt591  1  0.72248156  0.45550369  0.68301106  1
  Pt  Pt592  1  0.45550369  0.27751844  0.68301106  1
  Pt  Pt593  1  0.54449631  0.27751844  0.68301106  1
  Pt  Pt594  1  0.72248156  0.54449631  0.68301106  1
  Pt  Pt595  1  0.32201476  0.54449631  0.72713097  1
  Pt  Pt596  1  0.32201476  0.45550369  0.72713097  1
  Pt  Pt597  1  0.67798524  0.54449631  0.72713097  1
  Pt  Pt598  1  0.67798524  0.45550369  0.72713097  1
  Au  Au599  1  0.54449631  0.32201476  0.72786595  1
  Au  Au600  1  0.45550369  0.32201476  0.72786595  1
  Au  Au601  1  0.54449631  0.67798524  0.72786595  1
  Au  Au602  1  0.45550369  0.67798524  0.72786595  1
  Au  Au603  1  0.41100738  0.76697787  0.41210797  1
  Au  Au604  1  0.23302213  0.58899262  0.41210797  1
  Au  Au605  1  0.76697787  0.41100738  0.41210797  1
  Au  Au606  1  0.58899262  0.23302213  0.41210797  1
  Au  Au607  1  0.23302213  0.41100738  0.41210797  1
  Au  Au608  1  0.58899262  0.76697787  0.41210797  1
  Au  Au609  1  0.41100738  0.23302213  0.41210797  1
  Au  Au610  1  0.76697787  0.58899262  0.41210797  1
  Au  Au611  1  0.41100738  0.76697787  0.59403188  1
  Au  Au612  1  0.23302213  0.58899262  0.59403188  1
  Au  Au613  1  0.23302213  0.41100738  0.59403188  1
  Au  Au614  1  0.58899262  0.23302213  0.59403188  1
  Au  Au615  1  0.76697787  0.41100738  0.59403188  1
  Au  Au616  1  0.41100738  0.23302213  0.59403188  1
  Au  Au617  1  0.58899262  0.76697787  0.59403188  1
  Au  Au618  1  0.76697787  0.58899262  0.59403188  1
  Au  Au619  1  0.41100738  0.58899262  0.23018410  1
  Au  Au620  1  0.41100738  0.41100738  0.23018410  1
  Au  Au621  1  0.58899262  0.58899262  0.23018410  1
  Au  Au622  1  0.58899262  0.41100738  0.23018410  1
  Au  Au623  1  0.41100738  0.41100738  0.77199028  1
  Au  Au624  1  0.41100738  0.58899262  0.77199028  1
  Au  Au625  1  0.58899262  0.58899262  0.77199028  1
  Au  Au626  1  0.58899262  0.41100738  0.77199028  1
  Au  Au627  1  0.76697787  0.45550369  0.36798821  1
  Au  Au628  1  0.23302213  0.45550369  0.36798821  1
  Au  Au629  1  0.23302213  0.54449631  0.36798821  1
  Au  Au630  1  0.76697787  0.54449631  0.36798821  1
  Au  Au631  1  0.45550369  0.76697787  0.36725322  1
  Au  Au632  1  0.54449631  0.76697787  0.36725322  1
  Au  Au633  1  0.54449631  0.23302213  0.36725322  1
  Au  Au634  1  0.45550369  0.23302213  0.36725322  1
  Au  Au635  1  0.36651107  0.76697787  0.45696286  1
  Au  Au636  1  0.63348893  0.23302213  0.45696286  1
  Au  Au637  1  0.63348893  0.76697787  0.45696286  1
  Au  Au638  1  0.36651107  0.23302213  0.45696286  1
  Au  Au639  1  0.23302213  0.63348893  0.45622788  1
  Au  Au640  1  0.23302213  0.36651107  0.45622788  1
  Au  Au641  1  0.76697787  0.36651107  0.45622788  1
  Au  Au642  1  0.76697787  0.63348893  0.45622788  1
  Au  Au643  1  0.23302213  0.63348893  0.54755956  1
  Au  Au644  1  0.36651107  0.76697787  0.54755956  1
  Au  Au645  1  0.23302213  0.36651107  0.54755956  1
  Au  Au646  1  0.76697787  0.36651107  0.54755956  1
  Au  Au647  1  0.36651107  0.23302213  0.54755956  1
  Au  Au648  1  0.63348893  0.23302213  0.54755956  1
  Au  Au649  1  0.63348893  0.76697787  0.54755956  1
  Au  Au650  1  0.76697787  0.63348893  0.54755956  1
  Au  Au651  1  0.45550369  0.76697787  0.63815631  1
  Au  Au652  1  0.54449631  0.76697787  0.63815631  1
  Au  Au653  1  0.54449631  0.23302213  0.63815631  1
  Au  Au654  1  0.45550369  0.23302213  0.63815631  1
  Au  Au655  1  0.23302213  0.54449631  0.63889130  1
  Au  Au656  1  0.23302213  0.45550369  0.63889130  1
  Au  Au657  1  0.76697787  0.45550369  0.63889130  1
  Au  Au658  1  0.76697787  0.54449631  0.63889130  1
  Au  Au659  1  0.45550369  0.63348893  0.23018410  1
  Au  Au660  1  0.54449631  0.63348893  0.23018410  1
  Au  Au661  1  0.36651107  0.54449631  0.23018410  1
  Au  Au662  1  0.36651107  0.45550369  0.23018410  1
  Au  Au663  1  0.63348893  0.54449631  0.23018410  1
  Au  Au664  1  0.63348893  0.45550369  0.23018410  1
  Au  Au665  1  0.45550369  0.36651107  0.23018410  1
  Au  Au666  1  0.54449631  0.36651107  0.23018410  1
  Au  Au667  1  0.45550369  0.63348893  0.77199028  1
  Au  Au668  1  0.36651107  0.54449631  0.77199028  1
  Au  Au669  1  0.63348893  0.45550369  0.77199028  1
  Au  Au670  1  0.63348893  0.54449631  0.77199028  1
  Au  Au671  1  0.54449631  0.63348893  0.77199028  1
  Au  Au672  1  0.36651107  0.45550369  0.77199028  1
  Au  Au673  1  0.45550369  0.36651107  0.77199028  1
  Au  Au674  1  0.54449631  0.36651107  0.77199028  1
  Au  Au675  1  0.32201476  0.32201476  0.32312879  1
  Au  Au676  1  0.32201476  0.67798524  0.32312879  1
  Au  Au677  1  0.67798524  0.32201476  0.32312879  1
  Au  Au678  1  0.67798524  0.67798524  0.32312879  1
  Au  Au679  1  0.32201476  0.32201476  0.68301106  1
  Au  Au680  1  0.32201476  0.67798524  0.68301106  1
  Au  Au681  1  0.67798524  0.32201476  0.68301106  1
  Au  Au682  1  0.67798524  0.67798524  0.68301106  1
  Au  Au683  1  0.36651107  0.72248156  0.32312879  1
  Au  Au684  1  0.27751844  0.63348893  0.32312879  1
  Au  Au685  1  0.72248156  0.36651107  0.32312879  1
  Au  Au686  1  0.63348893  0.72248156  0.32312879  1
  Au  Au687  1  0.36651107  0.27751844  0.32312879  1
  Au  Au688  1  0.27751844  0.36651107  0.32312879  1
  Au  Au689  1  0.72248156  0.63348893  0.32312879  1
  Au  Au690  1  0.63348893  0.27751844  0.32312879  1
  Au  Au691  1  0.32201476  0.72248156  0.36798821  1
  Au  Au692  1  0.32201476  0.27751844  0.36798821  1
  Au  Au693  1  0.67798524  0.72248156  0.36798821  1
  Au  Au694  1  0.67798524  0.27751844  0.36798821  1
  Au  Au695  1  0.72248156  0.32201476  0.36725322  1
  Au  Au696  1  0.27751844  0.67798524  0.36725322  1
  Au  Au697  1  0.27751844  0.32201476  0.36725322  1
  Au  Au698  1  0.72248156  0.67798524  0.36725322  1
  Au  Au699  1  0.18852582  0.50000000  0.45696286  1
  Au  Au700  1  0.81147418  0.50000000  0.45696286  1
  Au  Au701  1  0.50000000  0.81147418  0.45622788  1
  Au  Au702  1  0.50000000  0.18852582  0.45622788  1
  Au  Au703  1  0.18852582  0.45550369  0.50108719  1
  Au  Au704  1  0.18852582  0.54449631  0.50108719  1
  Au  Au705  1  0.81147418  0.45550369  0.50108719  1
  Au  Au706  1  0.54449631  0.18852582  0.50108719  1
  Au  Au707  1  0.45550369  0.18852582  0.50108719  1
  Au  Au708  1  0.45550369  0.81147418  0.50108719  1
  Au  Au709  1  0.54449631  0.81147418  0.50108719  1
  Au  Au710  1  0.81147418  0.54449631  0.50108719  1
  Au  Au711  1  0.27751844  0.72248156  0.50108719  1
  Au  Au712  1  0.72248156  0.27751844  0.50108719  1
  Au  Au713  1  0.72248156  0.72248156  0.50108719  1
  Au  Au714  1  0.27751844  0.27751844  0.50108719  1
  Au  Au715  1  0.18852582  0.50000000  0.54755956  1
  Au  Au716  1  0.50000000  0.18852582  0.54755956  1
  Au  Au717  1  0.50000000  0.81147418  0.54755956  1
  Au  Au718  1  0.81147418  0.50000000  0.54755956  1
  Au  Au719  1  0.32201476  0.63348893  0.27665647  1
  Au  Au720  1  0.32201476  0.36651107  0.27665647  1
  Au  Au721  1  0.36651107  0.32201476  0.27665647  1
  Au  Au722  1  0.63348893  0.32201476  0.27665647  1
  Au  Au723  1  0.36651107  0.67798524  0.27665647  1
  Au  Au724  1  0.63348893  0.67798524  0.27665647  1
  Au  Au725  1  0.67798524  0.63348893  0.27665647  1
  Au  Au726  1  0.67798524  0.36651107  0.27665647  1
  Au  Au727  1  0.50000000  0.72248156  0.27665647  1
  Au  Au728  1  0.27751844  0.50000000  0.27665647  1
  Au  Au729  1  0.50000000  0.27751844  0.27665647  1
  Au  Au730  1  0.72248156  0.50000000  0.27665647  1
  Au  Au731  1  0.27751844  0.32201476  0.63815631  1
  Au  Au732  1  0.72248156  0.32201476  0.63815631  1
  Au  Au733  1  0.27751844  0.67798524  0.63815631  1
  Au  Au734  1  0.72248156  0.67798524  0.63815631  1
  Au  Au735  1  0.32201476  0.72248156  0.63889130  1
  Au  Au736  1  0.32201476  0.27751844  0.63889130  1
  Au  Au737  1  0.67798524  0.72248156  0.63889130  1
  Au  Au738  1  0.67798524  0.27751844  0.63889130  1
  Au  Au739  1  0.45550369  0.50000000  0.18605977  1
  Au  Au740  1  0.54449631  0.50000000  0.18605977  1
  Au  Au741  1  0.27751844  0.63348893  0.68301106  1
  Au  Au742  1  0.36651107  0.27751844  0.68301106  1
  Au  Au743  1  0.36651107  0.72248156  0.68301106  1
  Au  Au744  1  0.27751844  0.36651107  0.68301106  1
  Au  Au745  1  0.63348893  0.72248156  0.68301106  1
  Au  Au746  1  0.72248156  0.36651107  0.68301106  1
  Au  Au747  1  0.72248156  0.63348893  0.68301106  1
  Au  Au748  1  0.63348893  0.27751844  0.68301106  1
  Au  Au749  1  0.50000000  0.54449631  0.18532479  1
  Au  Au750  1  0.50000000  0.45550369  0.18532479  1
  Au  Au751  1  0.32201476  0.63348893  0.72713097  1
  Au  Au752  1  0.32201476  0.36651107  0.72713097  1
  Au  Au753  1  0.67798524  0.36651107  0.72713097  1
  Au  Au754  1  0.67798524  0.63348893  0.72713097  1
  Au  Au755  1  0.50000000  0.72248156  0.72713097  1
  Au  Au756  1  0.50000000  0.27751844  0.72713097  1
  Au  Au757  1  0.36651107  0.32201476  0.72786595  1
  Au  Au758  1  0.36651107  0.67798524  0.72786595  1
  Au  Au759  1  0.63348893  0.32201476  0.72786595  1
  Au  Au760  1  0.63348893  0.67798524  0.72786595  1
  Au  Au761  1  0.27751844  0.50000000  0.72786595  1
  Au  Au762  1  0.72248156  0.50000000  0.72786595  1
  Au  Au763  1  0.50000000  0.76697787  0.32312879  1
  Au  Au764  1  0.23302213  0.50000000  0.32312879  1
  Au  Au765  1  0.50000000  0.23302213  0.32312879  1
  Au  Au766  1  0.76697787  0.50000000  0.32312879  1
  Au  Au767  1  0.32201476  0.76697787  0.50108719  1
  Au  Au768  1  0.23302213  0.67798524  0.50108719  1
  Au  Au769  1  0.23302213  0.32201476  0.50108719  1
  Au  Au770  1  0.76697787  0.32201476  0.50108719  1
  Au  Au771  1  0.32201476  0.23302213  0.50108719  1
  Au  Au772  1  0.67798524  0.23302213  0.50108719  1
  Au  Au773  1  0.67798524  0.76697787  0.50108719  1
  Au  Au774  1  0.76697787  0.67798524  0.50108719  1
  Au  Au775  1  0.45550369  0.50000000  0.81846265  1
  Au  Au776  1  0.50000000  0.45550369  0.81846265  1
  Au  Au777  1  0.50000000  0.54449631  0.81846265  1
  Au  Au778  1  0.54449631  0.50000000  0.81846265  1
  Au  Au779  1  0.32201476  0.50000000  0.23018410  1
  Au  Au780  1  0.50000000  0.67798524  0.23018410  1
  Au  Au781  1  0.50000000  0.32201476  0.23018410  1
  Au  Au782  1  0.67798524  0.50000000  0.23018410  1
  Au  Au783  1  0.23302213  0.50000000  0.68301106  1
  Au  Au784  1  0.50000000  0.76697787  0.68301106  1
  Au  Au785  1  0.50000000  0.23302213  0.68301106  1
  Au  Au786  1  0.76697787  0.50000000  0.68301106  1
  Au  Au787  1  0.32201476  0.50000000  0.77199028  1
  Au  Au788  1  0.50000000  0.32201476  0.77199028  1
  Au  Au789  1  0.50000000  0.67798524  0.77199028  1
  Au  Au790  1  0.67798524  0.50000000  0.77199028  1
  Au  Au791  1  0.23302213  0.63348893  0.36798821  1
  Au  Au792  1  0.76697787  0.36651107  0.36798821  1
  Au  Au793  1  0.23302213  0.36651107  0.36798821  1
  Au  Au794  1  0.76697787  0.63348893  0.36798821  1
  Au  Au795  1  0.36651107  0.76697787  0.36725322  1
  Au  Au796  1  0.63348893  0.23302213  0.36725322  1
  Au  Au797  1  0.63348893  0.76697787  0.36725322  1
  Au  Au798  1  0.36651107  0.23302213  0.36725322  1
  Au  Au799  1  0.18852582  0.54449631  0.41210797  1
  Au  Au800  1  0.45550369  0.81147418  0.41210797  1
  Au  Au801  1  0.18852582  0.45550369  0.41210797  1
  Au  Au802  1  0.54449631  0.81147418  0.41210797  1
  Au  Au803  1  0.45550369  0.18852582  0.41210797  1
  Au  Au804  1  0.81147418  0.45550369  0.41210797  1
  Au  Au805  1  0.54449631  0.18852582  0.41210797  1
  Au  Au806  1  0.81147418  0.54449631  0.41210797  1
  Au  Au807  1  0.27751844  0.72248156  0.41210797  1
  Au  Au808  1  0.72248156  0.27751844  0.41210797  1
  Au  Au809  1  0.27751844  0.27751844  0.41210797  1
  Au  Au810  1  0.72248156  0.72248156  0.41210797  1
  Au  Au811  1  0.18852582  0.58899262  0.45696286  1
  Au  Au812  1  0.18852582  0.41100738  0.45696286  1
  Au  Au813  1  0.81147418  0.41100738  0.45696286  1
  Au  Au814  1  0.81147418  0.58899262  0.45696286  1
  Au  Au815  1  0.58899262  0.18852582  0.45622788  1
  Au  Au816  1  0.41100738  0.81147418  0.45622788  1
  Au  Au817  1  0.58899262  0.81147418  0.45622788  1
  Au  Au818  1  0.41100738  0.18852582  0.45622788  1
  Au  Au819  1  0.18852582  0.41100738  0.54755956  1
  Au  Au820  1  0.18852582  0.58899262  0.54755956  1
  Au  Au821  1  0.41100738  0.18852582  0.54755956  1
  Au  Au822  1  0.41100738  0.81147418  0.54755956  1
  Au  Au823  1  0.58899262  0.18852582  0.54755956  1
  Au  Au824  1  0.58899262  0.81147418  0.54755956  1
  Au  Au825  1  0.81147418  0.41100738  0.54755956  1
  Au  Au826  1  0.81147418  0.58899262  0.54755956  1
  Au  Au827  1  0.58899262  0.72248156  0.27665647  1
  Au  Au828  1  0.41100738  0.72248156  0.27665647  1
  Au  Au829  1  0.27751844  0.58899262  0.27665647  1
  Au  Au830  1  0.72248156  0.41100738  0.27665647  1
  Au  Au831  1  0.27751844  0.41100738  0.27665647  1
  Au  Au832  1  0.58899262  0.27751844  0.27665647  1
  Au  Au833  1  0.72248156  0.58899262  0.27665647  1
  Au  Au834  1  0.41100738  0.27751844  0.27665647  1
  Au  Au835  1  0.18852582  0.45550369  0.59403188  1
  Au  Au836  1  0.18852582  0.54449631  0.59403188  1
  Au  Au837  1  0.45550369  0.81147418  0.59403188  1
  Au  Au838  1  0.45550369  0.18852582  0.59403188  1
  Au  Au839  1  0.54449631  0.18852582  0.59403188  1
  Au  Au840  1  0.81147418  0.45550369  0.59403188  1
  Au  Au841  1  0.54449631  0.81147418  0.59403188  1
  Au  Au842  1  0.81147418  0.54449631  0.59403188  1
  Au  Au843  1  0.27751844  0.72248156  0.59403188  1
  Au  Au844  1  0.72248156  0.27751844  0.59403188  1
  Au  Au845  1  0.27751844  0.27751844  0.59403188  1
  Au  Au846  1  0.72248156  0.72248156  0.59403188  1
  Au  Au847  1  0.36651107  0.76697787  0.63815631  1
  Au  Au848  1  0.63348893  0.23302213  0.63815631  1
  Au  Au849  1  0.36651107  0.23302213  0.63815631  1
  Au  Au850  1  0.63348893  0.76697787  0.63815631  1
  Au  Au851  1  0.23302213  0.63348893  0.63889130  1
  Au  Au852  1  0.23302213  0.36651107  0.63889130  1
  Au  Au853  1  0.76697787  0.36651107  0.63889130  1
  Au  Au854  1  0.76697787  0.63348893  0.63889130  1
  Au  Au855  1  0.36651107  0.63348893  0.23018410  1
  Au  Au856  1  0.36651107  0.36651107  0.23018410  1
  Au  Au857  1  0.63348893  0.63348893  0.23018410  1
  Au  Au858  1  0.63348893  0.36651107  0.23018410  1
  Au  Au859  1  0.45550369  0.58899262  0.18605977  1
  Au  Au860  1  0.54449631  0.58899262  0.18605977  1
  Au  Au861  1  0.45550369  0.41100738  0.18605977  1
  Au  Au862  1  0.54449631  0.41100738  0.18605977  1
  Au  Au863  1  0.58899262  0.54449631  0.18532479  1
  Au  Au864  1  0.58899262  0.45550369  0.18532479  1
  Au  Au865  1  0.41100738  0.45550369  0.18532479  1
  Au  Au866  1  0.41100738  0.54449631  0.18532479  1
  Au  Au867  1  0.41100738  0.72248156  0.72713097  1
  Au  Au868  1  0.41100738  0.27751844  0.72713097  1
  Au  Au869  1  0.58899262  0.27751844  0.72713097  1
  Au  Au870  1  0.58899262  0.72248156  0.72713097  1
  Au  Au871  1  0.27751844  0.58899262  0.72786595  1
  Au  Au872  1  0.72248156  0.41100738  0.72786595  1
  Au  Au873  1  0.27751844  0.41100738  0.72786595  1
  Au  Au874  1  0.72248156  0.58899262  0.72786595  1
  Au  Au875  1  0.36651107  0.63348893  0.77199028  1
  Au  Au876  1  0.36651107  0.36651107  0.77199028  1
  Au  Au877  1  0.63348893  0.36651107  0.77199028  1
  Au  Au878  1  0.63348893  0.63348893  0.77199028  1
  Au  Au879  1  0.41100738  0.76697787  0.32312879  1
  Au  Au880  1  0.23302213  0.58899262  0.32312879  1
  Au  Au881  1  0.58899262  0.76697787  0.32312879  1
  Au  Au882  1  0.76697787  0.41100738  0.32312879  1
  Au  Au883  1  0.23302213  0.41100738  0.32312879  1
  Au  Au884  1  0.58899262  0.23302213  0.32312879  1
  Au  Au885  1  0.41100738  0.23302213  0.32312879  1
  Au  Au886  1  0.76697787  0.58899262  0.32312879  1
  Au  Au887  1  0.32201476  0.76697787  0.41210797  1
  Au  Au888  1  0.23302213  0.67798524  0.41210797  1
  Au  Au889  1  0.76697787  0.32201476  0.41210797  1
  Au  Au890  1  0.23302213  0.32201476  0.41210797  1
  Au  Au891  1  0.32201476  0.23302213  0.41210797  1
  Au  Au892  1  0.67798524  0.23302213  0.41210797  1
  Au  Au893  1  0.67798524  0.76697787  0.41210797  1
  Au  Au894  1  0.76697787  0.67798524  0.41210797  1
  Au  Au895  1  0.54449631  0.58899262  0.81846265  1
  Au  Au896  1  0.45550369  0.58899262  0.81846265  1
  Au  Au897  1  0.45550369  0.41100738  0.81846265  1
  Au  Au898  1  0.41100738  0.54449631  0.81846265  1
  Au  Au899  1  0.41100738  0.45550369  0.81846265  1
  Au  Au900  1  0.58899262  0.54449631  0.81846265  1
  Au  Au901  1  0.58899262  0.45550369  0.81846265  1
  Au  Au902  1  0.54449631  0.41100738  0.81846265  1
