# generated using pymatgen
data_Pt72Au719
_symmetry_space_group_name_H-M   'P 1'
_cell_length_a   45.00000000
_cell_length_b   45.00000000
_cell_length_c   45.00000000
_cell_angle_alpha   90.00000000
_cell_angle_beta   90.00000000
_cell_angle_gamma   90.00000000
_symmetry_Int_Tables_number   1
_chemical_formula_structural   Pt72Au719
_chemical_formula_sum   'Pt72 Au719'
_cell_volume   91125.00000000
_cell_formula_units_Z   1
loop_
 _symmetry_equiv_pos_site_id
 _symmetry_equiv_pos_as_xyz
  1  'x, y, z'
loop_
 _atom_site_type_symbol
 _atom_site_label
 _atom_site_symmetry_multiplicity
 _atom_site_fract_x
 _atom_site_fract_y
 _atom_site_fract_z
 _atom_site_occupancy
  Pt  Pt0  1  0.50000000  0.50000000  0.50077799  1
  Pt  Pt1  1  0.50000000  0.46240773  0.44687077  1
  Pt  Pt2  1  0.53255587  0.51879613  0.44687077  1
  Pt  Pt3  1  0.46744413  0.51879613  0.44687077  1
  Pt  Pt4  1  0.56511171  0.49975089  0.49954137  1
  Pt  Pt5  1  0.43488829  0.49975089  0.49954137  1
  Pt  Pt6  1  0.53234011  0.55651296  0.49954137  1
  Pt  Pt7  1  0.46765989  0.55651296  0.49954137  1
  Pt  Pt8  1  0.53277160  0.44373616  0.49954137  1
  Pt  Pt9  1  0.46722840  0.44373616  0.49954137  1
  Pt  Pt10  1  0.50000000  0.53784138  0.55366599  1
  Pt  Pt11  1  0.53277160  0.48107931  0.55366599  1
  Pt  Pt12  1  0.46722840  0.48107931  0.55366599  1
  Pt  Pt13  1  0.56511171  0.53759227  0.55242939  1
  Pt  Pt14  1  0.50000000  0.42481547  0.55242939  1
  Pt  Pt15  1  0.43488829  0.53759227  0.55242939  1
  Pt  Pt16  1  0.56511171  0.46240773  0.44687077  1
  Pt  Pt17  1  0.43488829  0.46240773  0.44687077  1
  Pt  Pt18  1  0.50000000  0.57518453  0.44687077  1
  Pt  Pt19  1  0.50000000  0.53784138  0.39420017  1
  Pt  Pt20  1  0.53277160  0.48107931  0.39420017  1
  Pt  Pt21  1  0.46722840  0.48107931  0.39420017  1
  Pt  Pt22  1  0.59745182  0.44373616  0.49954137  1
  Pt  Pt23  1  0.40254818  0.44373616  0.49954137  1
  Pt  Pt24  1  0.50000000  0.61252769  0.49954137  1
  Pt  Pt25  1  0.59766755  0.51879613  0.44687077  1
  Pt  Pt26  1  0.40233245  0.51879613  0.44687077  1
  Pt  Pt27  1  0.56511171  0.57518453  0.44687077  1
  Pt  Pt28  1  0.43488829  0.57518453  0.44687077  1
  Pt  Pt29  1  0.53255584  0.40601933  0.44687077  1
  Pt  Pt30  1  0.46744416  0.40601933  0.44687077  1
  Pt  Pt31  1  0.50000000  0.46240773  0.60633659  1
  Pt  Pt32  1  0.53255587  0.51879613  0.60633659  1
  Pt  Pt33  1  0.46744413  0.51879613  0.60633659  1
  Pt  Pt34  1  0.59745182  0.48107931  0.55366599  1
  Pt  Pt35  1  0.40254818  0.48107931  0.55366599  1
  Pt  Pt36  1  0.56511171  0.42506458  0.55366599  1
  Pt  Pt37  1  0.43488829  0.42506458  0.55366599  1
  Pt  Pt38  1  0.53234011  0.59385611  0.55366599  1
  Pt  Pt39  1  0.46765989  0.59385611  0.55366599  1
  Pt  Pt40  1  0.50000000  0.38697409  0.49954137  1
  Pt  Pt41  1  0.59788331  0.55651296  0.49954137  1
  Pt  Pt42  1  0.40211669  0.55651296  0.49954137  1
  Pt  Pt43  1  0.56511171  0.46240773  0.60633659  1
  Pt  Pt44  1  0.43488829  0.46240773  0.60633659  1
  Pt  Pt45  1  0.50000000  0.57518453  0.60633659  1
  Pt  Pt46  1  0.63022342  0.50000000  0.50077799  1
  Pt  Pt47  1  0.36977658  0.50000000  0.50077799  1
  Pt  Pt48  1  0.56511171  0.38722320  0.50077799  1
  Pt  Pt49  1  0.43488829  0.38722320  0.50077799  1
  Pt  Pt50  1  0.56511171  0.61277680  0.50077799  1
  Pt  Pt51  1  0.43488829  0.61277680  0.50077799  1
  Pt  Pt52  1  0.56511171  0.53759227  0.39296357  1
  Pt  Pt53  1  0.50000000  0.42481547  0.39296357  1
  Pt  Pt54  1  0.43488829  0.53759227  0.39296357  1
  Pt  Pt55  1  0.59745182  0.48107931  0.39420017  1
  Pt  Pt56  1  0.40254818  0.48107931  0.39420017  1
  Pt  Pt57  1  0.56511171  0.42506458  0.39420017  1
  Pt  Pt58  1  0.43488829  0.42506458  0.39420017  1
  Pt  Pt59  1  0.53234011  0.59385611  0.39420017  1
  Pt  Pt60  1  0.46765989  0.59385611  0.39420017  1
  Pt  Pt61  1  0.63022342  0.46240773  0.44687077  1
  Pt  Pt62  1  0.36977658  0.46240773  0.44687077  1
  Pt  Pt63  1  0.53255584  0.63157293  0.44687077  1
  Pt  Pt64  1  0.46744416  0.63157293  0.44687077  1
  Pt  Pt65  1  0.59766758  0.40601933  0.44687077  1
  Pt  Pt66  1  0.40233242  0.40601933  0.44687077  1
  Pt  Pt67  1  0.59766755  0.51879613  0.60633659  1
  Pt  Pt68  1  0.40233245  0.51879613  0.60633659  1
  Pt  Pt69  1  0.56511171  0.57518453  0.60633659  1
  Pt  Pt70  1  0.43488829  0.57518453  0.60633659  1
  Pt  Pt71  1  0.53255584  0.40601933  0.60633659  1
  Au  Au72  1  0.46744416  0.40601933  0.60633659  1
  Au  Au73  1  0.63022342  0.53784138  0.55366599  1
  Au  Au74  1  0.36977658  0.53784138  0.55366599  1
  Au  Au75  1  0.53234011  0.36830251  0.55366599  1
  Au  Au76  1  0.46765989  0.36830251  0.55366599  1
  Au  Au77  1  0.59788331  0.59385611  0.55366599  1
  Au  Au78  1  0.40211669  0.59385611  0.55366599  1
  Au  Au79  1  0.50000000  0.50000000  0.34131217  1
  Au  Au80  1  0.63022342  0.42481547  0.55242939  1
  Au  Au81  1  0.36977658  0.42481547  0.55242939  1
  Au  Au82  1  0.50000000  0.65036907  0.55242939  1
  Au  Au83  1  0.63022342  0.57518453  0.44687077  1
  Au  Au84  1  0.36977658  0.57518453  0.44687077  1
  Au  Au85  1  0.50000000  0.34963093  0.44687077  1
  Au  Au86  1  0.50000000  0.50000000  0.66024381  1
  Au  Au87  1  0.56511171  0.49975089  0.65900719  1
  Au  Au88  1  0.43488829  0.49975089  0.65900719  1
  Au  Au89  1  0.53234011  0.55651296  0.65900719  1
  Au  Au90  1  0.46765989  0.55651296  0.65900719  1
  Au  Au91  1  0.53277160  0.44373616  0.65900719  1
  Au  Au92  1  0.46722840  0.44373616  0.65900719  1
  Au  Au93  1  0.63022342  0.53784138  0.39420017  1
  Au  Au94  1  0.36977658  0.53784138  0.39420017  1
  Au  Au95  1  0.53234011  0.36830251  0.39420017  1
  Au  Au96  1  0.46765989  0.36830251  0.39420017  1
  Au  Au97  1  0.59788331  0.59385611  0.39420017  1
  Au  Au98  1  0.40211669  0.59385611  0.39420017  1
  Au  Au99  1  0.66256353  0.55651296  0.49954137  1
  Au  Au100  1  0.33743647  0.55651296  0.49954137  1
  Au  Au101  1  0.63022342  0.61252769  0.49954137  1
  Au  Au102  1  0.36977658  0.61252769  0.49954137  1
  Au  Au103  1  0.53234011  0.33095936  0.49954137  1
  Au  Au104  1  0.46765989  0.33095936  0.49954137  1
  Au  Au105  1  0.66277929  0.51879613  0.44687077  1
  Au  Au106  1  0.33722071  0.51879613  0.44687077  1
  Au  Au107  1  0.56511171  0.34963093  0.44687077  1
  Au  Au108  1  0.43488829  0.34963093  0.44687077  1
  Au  Au109  1  0.59766758  0.63157293  0.44687077  1
  Au  Au110  1  0.40233242  0.63157293  0.44687077  1
  Au  Au111  1  0.63022342  0.46240773  0.60633659  1
  Au  Au112  1  0.36977658  0.46240773  0.60633659  1
  Au  Au113  1  0.53255584  0.63157293  0.60633659  1
  Au  Au114  1  0.46744416  0.63157293  0.60633659  1
  Au  Au115  1  0.59766758  0.40601933  0.60633659  1
  Au  Au116  1  0.40233242  0.40601933  0.60633659  1
  Au  Au117  1  0.63022342  0.38697409  0.49954137  1
  Au  Au118  1  0.36977658  0.38697409  0.49954137  1
  Au  Au119  1  0.66299502  0.44373616  0.49954137  1
  Au  Au120  1  0.33700498  0.44373616  0.49954137  1
  Au  Au121  1  0.53277160  0.66928976  0.49954137  1
  Au  Au122  1  0.46722840  0.66928976  0.49954137  1
  Au  Au123  1  0.66299502  0.48107931  0.55366599  1
  Au  Au124  1  0.33700498  0.48107931  0.55366599  1
  Au  Au125  1  0.56511171  0.65061818  0.55366599  1
  Au  Au126  1  0.43488829  0.65061818  0.55366599  1
  Au  Au127  1  0.59788331  0.36830251  0.55366599  1
  Au  Au128  1  0.40211669  0.36830251  0.55366599  1
  Au  Au129  1  0.56511171  0.49975089  0.34007555  1
  Au  Au130  1  0.43488829  0.49975089  0.34007555  1
  Au  Au131  1  0.53234011  0.55651296  0.34007555  1
  Au  Au132  1  0.46765989  0.55651296  0.34007555  1
  Au  Au133  1  0.53277160  0.44373616  0.34007555  1
  Au  Au134  1  0.46722840  0.44373616  0.34007555  1
  Au  Au135  1  0.63022342  0.57518453  0.60633659  1
  Au  Au136  1  0.36977658  0.57518453  0.60633659  1
  Au  Au137  1  0.50000000  0.34963093  0.60633659  1
  Au  Au138  1  0.63022342  0.42481547  0.39296357  1
  Au  Au139  1  0.36977658  0.42481547  0.39296357  1
  Au  Au140  1  0.50000000  0.65036907  0.39296357  1
  Au  Au141  1  0.59745182  0.44373616  0.65900719  1
  Au  Au142  1  0.40254818  0.44373616  0.65900719  1
  Au  Au143  1  0.50000000  0.61252769  0.65900719  1
  Au  Au144  1  0.50000000  0.38697409  0.65900719  1
  Au  Au145  1  0.59788331  0.55651296  0.65900719  1
  Au  Au146  1  0.40211669  0.55651296  0.65900719  1
  Au  Au147  1  0.66256353  0.59385611  0.55366599  1
  Au  Au148  1  0.33743647  0.59385611  0.55366599  1
  Au  Au149  1  0.50000000  0.31228778  0.55366599  1
  Au  Au150  1  0.66299502  0.48107931  0.39420017  1
  Au  Au151  1  0.33700498  0.48107931  0.39420017  1
  Au  Au152  1  0.56511171  0.65061818  0.39420017  1
  Au  Au153  1  0.43488829  0.65061818  0.39420017  1
  Au  Au154  1  0.59788331  0.36830251  0.39420017  1
  Au  Au155  1  0.40211669  0.36830251  0.39420017  1
  Au  Au156  1  0.66277927  0.40601933  0.44687077  1
  Au  Au157  1  0.33722073  0.40601933  0.44687077  1
  Au  Au158  1  0.50000000  0.68796133  0.44687077  1
  Au  Au159  1  0.66277929  0.51879613  0.60633659  1
  Au  Au160  1  0.33722071  0.51879613  0.60633659  1
  Au  Au161  1  0.56511171  0.34963093  0.60633659  1
  Au  Au162  1  0.43488829  0.34963093  0.60633659  1
  Au  Au163  1  0.59766758  0.63157293  0.60633659  1
  Au  Au164  1  0.40233242  0.63157293  0.60633659  1
  Au  Au165  1  0.69533513  0.49975089  0.49954137  1
  Au  Au166  1  0.30466487  0.49975089  0.49954137  1
  Au  Au167  1  0.59745182  0.66928976  0.49954137  1
  Au  Au168  1  0.40254818  0.66928976  0.49954137  1
  Au  Au169  1  0.59788331  0.33095936  0.49954137  1
  Au  Au170  1  0.40211669  0.33095936  0.49954137  1
  Au  Au171  1  0.59745182  0.44373616  0.34007555  1
  Au  Au172  1  0.40254818  0.44373616  0.34007555  1
  Au  Au173  1  0.50000000  0.61252769  0.34007555  1
  Au  Au174  1  0.50000000  0.38697409  0.34007555  1
  Au  Au175  1  0.59788331  0.55651296  0.34007555  1
  Au  Au176  1  0.40211669  0.55651296  0.34007555  1
  Au  Au177  1  0.63022342  0.50000000  0.34131217  1
  Au  Au178  1  0.36977658  0.50000000  0.34131217  1
  Au  Au179  1  0.56511171  0.38722320  0.34131217  1
  Au  Au180  1  0.43488829  0.38722320  0.34131217  1
  Au  Au181  1  0.56511171  0.61277680  0.34131217  1
  Au  Au182  1  0.43488829  0.61277680  0.34131217  1
  Au  Au183  1  0.69533513  0.53759227  0.55242939  1
  Au  Au184  1  0.30466487  0.53759227  0.55242939  1
  Au  Au185  1  0.63022342  0.65036907  0.55242939  1
  Au  Au186  1  0.56511171  0.31203867  0.55242939  1
  Au  Au187  1  0.36977658  0.65036907  0.55242939  1
  Au  Au188  1  0.43488829  0.31203867  0.55242939  1
  Au  Au189  1  0.69533513  0.46240773  0.44687077  1
  Au  Au190  1  0.30466487  0.46240773  0.44687077  1
  Au  Au191  1  0.63022342  0.34963093  0.44687077  1
  Au  Au192  1  0.36977658  0.34963093  0.44687077  1
  Au  Au193  1  0.56511171  0.68796133  0.44687077  1
  Au  Au194  1  0.43488829  0.68796133  0.44687077  1
  Au  Au195  1  0.63022342  0.50000000  0.66024381  1
  Au  Au196  1  0.36977658  0.50000000  0.66024381  1
  Au  Au197  1  0.56511171  0.38722320  0.66024381  1
  Au  Au198  1  0.43488829  0.38722320  0.66024381  1
  Au  Au199  1  0.56511171  0.61277680  0.66024381  1
  Au  Au200  1  0.43488829  0.61277680  0.66024381  1
  Au  Au201  1  0.66256353  0.59385611  0.39420017  1
  Au  Au202  1  0.33743647  0.59385611  0.39420017  1
  Au  Au203  1  0.50000000  0.31228778  0.39420017  1
  Au  Au204  1  0.50000000  0.46240773  0.28740495  1
  Au  Au205  1  0.53255587  0.51879613  0.28740495  1
  Au  Au206  1  0.46744413  0.51879613  0.28740495  1
  Au  Au207  1  0.69533513  0.57518453  0.44687077  1
  Au  Au208  1  0.30466487  0.57518453  0.44687077  1
  Au  Au209  1  0.66277927  0.63157293  0.44687077  1
  Au  Au210  1  0.33722073  0.63157293  0.44687077  1
  Au  Au211  1  0.53255587  0.29324253  0.44687077  1
  Au  Au212  1  0.46744413  0.29324253  0.44687077  1
  Au  Au213  1  0.66277927  0.40601933  0.60633659  1
  Au  Au214  1  0.33722073  0.40601933  0.60633659  1
  Au  Au215  1  0.50000000  0.68796133  0.60633659  1
  Au  Au216  1  0.66256353  0.36830251  0.55366599  1
  Au  Au217  1  0.33743647  0.36830251  0.55366599  1
  Au  Au218  1  0.69533513  0.42506458  0.55366599  1
  Au  Au219  1  0.30466487  0.42506458  0.55366599  1
  Au  Au220  1  0.53277160  0.70663291  0.55366599  1
  Au  Au221  1  0.46722840  0.70663291  0.55366599  1
  Au  Au222  1  0.50000000  0.53784138  0.71313181  1
  Au  Au223  1  0.53277160  0.48107931  0.71313181  1
  Au  Au224  1  0.46722840  0.48107931  0.71313181  1
  Au  Au225  1  0.56511171  0.53759227  0.71189521  1
  Au  Au226  1  0.50000000  0.42481547  0.71189521  1
  Au  Au227  1  0.43488829  0.53759227  0.71189521  1
  Au  Au228  1  0.56511171  0.46240773  0.28740495  1
  Au  Au229  1  0.43488829  0.46240773  0.28740495  1
  Au  Au230  1  0.50000000  0.57518453  0.28740495  1
  Au  Au231  1  0.69533513  0.46240773  0.60633659  1
  Au  Au232  1  0.30466487  0.46240773  0.60633659  1
  Au  Au233  1  0.63022342  0.34963093  0.60633659  1
  Au  Au234  1  0.36977658  0.34963093  0.60633659  1
  Au  Au235  1  0.56511171  0.68796133  0.60633659  1
  Au  Au236  1  0.43488829  0.68796133  0.60633659  1
  Au  Au237  1  0.69533513  0.38722320  0.50077799  1
  Au  Au238  1  0.69533513  0.61277680  0.50077799  1
  Au  Au239  1  0.30466487  0.38722320  0.50077799  1
  Au  Au240  1  0.30466487  0.61277680  0.50077799  1
  Au  Au241  1  0.50000000  0.27444640  0.50077799  1
  Au  Au242  1  0.50000000  0.72555360  0.50077799  1
  Au  Au243  1  0.69533513  0.53759227  0.39296357  1
  Au  Au244  1  0.30466487  0.53759227  0.39296357  1
  Au  Au245  1  0.63022342  0.65036907  0.39296357  1
  Au  Au246  1  0.56511171  0.31203867  0.39296357  1
  Au  Au247  1  0.36977658  0.65036907  0.39296357  1
  Au  Au248  1  0.43488829  0.31203867  0.39296357  1
  Au  Au249  1  0.66256353  0.55651296  0.65900719  1
  Au  Au250  1  0.33743647  0.55651296  0.65900719  1
  Au  Au251  1  0.63022342  0.61252769  0.65900719  1
  Au  Au252  1  0.36977658  0.61252769  0.65900719  1
  Au  Au253  1  0.53234011  0.33095936  0.65900719  1
  Au  Au254  1  0.46765989  0.33095936  0.65900719  1
  Au  Au255  1  0.66256353  0.36830251  0.39420017  1
  Au  Au256  1  0.33743647  0.36830251  0.39420017  1
  Au  Au257  1  0.69533513  0.42506458  0.39420017  1
  Au  Au258  1  0.30466487  0.42506458  0.39420017  1
  Au  Au259  1  0.53277160  0.70663291  0.39420017  1
  Au  Au260  1  0.46722840  0.70663291  0.39420017  1
  Au  Au261  1  0.27232476  0.44373616  0.49954137  1
  Au  Au262  1  0.72767525  0.44373616  0.49954137  1
  Au  Au263  1  0.66256353  0.33095936  0.49954137  1
  Au  Au264  1  0.33743647  0.33095936  0.49954137  1
  Au  Au265  1  0.56511171  0.72530449  0.49954137  1
  Au  Au266  1  0.43488829  0.72530449  0.49954137  1
  Au  Au267  1  0.63022342  0.38697409  0.65900719  1
  Au  Au268  1  0.36977658  0.38697409  0.65900719  1
  Au  Au269  1  0.66299502  0.44373616  0.65900719  1
  Au  Au270  1  0.33700498  0.44373616  0.65900719  1
  Au  Au271  1  0.53277160  0.66928976  0.65900719  1
  Au  Au272  1  0.46722840  0.66928976  0.65900719  1
  Au  Au273  1  0.72767524  0.48107931  0.55366599  1
  Au  Au274  1  0.27232475  0.48107931  0.55366599  1
  Au  Au275  1  0.63022342  0.31228778  0.55366599  1
  Au  Au276  1  0.36977658  0.31228778  0.55366599  1
  Au  Au277  1  0.59745182  0.70663291  0.55366599  1
  Au  Au278  1  0.40254818  0.70663291  0.55366599  1
  Au  Au279  1  0.59766755  0.51879613  0.28740495  1
  Au  Au280  1  0.40233245  0.51879613  0.28740495  1
  Au  Au281  1  0.56511171  0.57518453  0.28740495  1
  Au  Au282  1  0.43488829  0.57518453  0.28740495  1
  Au  Au283  1  0.53255584  0.40601933  0.28740495  1
  Au  Au284  1  0.46744416  0.40601933  0.28740495  1
  Au  Au285  1  0.72789098  0.51879613  0.44687077  1
  Au  Au286  1  0.27210902  0.51879613  0.44687077  1
  Au  Au287  1  0.63022342  0.68796133  0.44687077  1
  Au  Au288  1  0.36977658  0.68796133  0.44687077  1
  Au  Au289  1  0.59766755  0.29324253  0.44687077  1
  Au  Au290  1  0.40233245  0.29324253  0.44687077  1
  Au  Au291  1  0.69533513  0.57518453  0.60633659  1
  Au  Au292  1  0.30466487  0.57518453  0.60633659  1
  Au  Au293  1  0.66277927  0.63157293  0.60633659  1
  Au  Au294  1  0.33722073  0.63157293  0.60633659  1
  Au  Au295  1  0.53255587  0.29324253  0.60633659  1
  Au  Au296  1  0.46744413  0.29324253  0.60633659  1
  Au  Au297  1  0.66256353  0.55651296  0.34007555  1
  Au  Au298  1  0.33743647  0.55651296  0.34007555  1
  Au  Au299  1  0.63022342  0.61252769  0.34007555  1
  Au  Au300  1  0.36977658  0.61252769  0.34007555  1
  Au  Au301  1  0.53234011  0.33095936  0.34007555  1
  Au  Au302  1  0.46765989  0.33095936  0.34007555  1
  Au  Au303  1  0.72810673  0.55651296  0.49954137  1
  Au  Au304  1  0.27189327  0.55651296  0.49954137  1
  Au  Au305  1  0.56511171  0.27419729  0.49954137  1
  Au  Au306  1  0.43488829  0.27419729  0.49954137  1
  Au  Au307  1  0.66299502  0.66928976  0.49954137  1
  Au  Au308  1  0.33700498  0.66928976  0.49954137  1
  Au  Au309  1  0.59745182  0.48107931  0.71313181  1
  Au  Au310  1  0.40254818  0.48107931  0.71313181  1
  Au  Au311  1  0.56511171  0.42506458  0.71313181  1
  Au  Au312  1  0.43488829  0.42506458  0.71313181  1
  Au  Au313  1  0.53234011  0.59385611  0.71313181  1
  Au  Au314  1  0.46765989  0.59385611  0.71313181  1
  Au  Au315  1  0.63022342  0.38697409  0.34007555  1
  Au  Au316  1  0.36977658  0.38697409  0.34007555  1
  Au  Au317  1  0.66299502  0.44373616  0.34007555  1
  Au  Au318  1  0.33700498  0.44373616  0.34007555  1
  Au  Au319  1  0.53277160  0.66928976  0.34007555  1
  Au  Au320  1  0.46722840  0.66928976  0.34007555  1
  Au  Au321  1  0.72767524  0.48107931  0.39420017  1
  Au  Au322  1  0.27232475  0.48107931  0.39420017  1
  Au  Au323  1  0.63022342  0.31228778  0.39420017  1
  Au  Au324  1  0.36977658  0.31228778  0.39420017  1
  Au  Au325  1  0.59745182  0.70663291  0.39420017  1
  Au  Au326  1  0.40254818  0.70663291  0.39420017  1
  Au  Au327  1  0.69533513  0.49975089  0.65900719  1
  Au  Au328  1  0.30466487  0.49975089  0.65900719  1
  Au  Au329  1  0.59745182  0.66928976  0.65900719  1
  Au  Au330  1  0.40254818  0.66928976  0.65900719  1
  Au  Au331  1  0.59788331  0.33095936  0.65900719  1
  Au  Au332  1  0.40211669  0.33095936  0.65900719  1
  Au  Au333  1  0.63022342  0.46240773  0.28740495  1
  Au  Au334  1  0.36977658  0.46240773  0.28740495  1
  Au  Au335  1  0.53255584  0.63157293  0.28740495  1
  Au  Au336  1  0.46744416  0.63157293  0.28740495  1
  Au  Au337  1  0.59766758  0.40601933  0.28740495  1
  Au  Au338  1  0.40233242  0.40601933  0.28740495  1
  Au  Au339  1  0.69533513  0.34963093  0.44687077  1
  Au  Au340  1  0.30466487  0.34963093  0.44687077  1
  Au  Au341  1  0.72789100  0.40601933  0.44687077  1
  Au  Au342  1  0.27210900  0.40601933  0.44687077  1
  Au  Au343  1  0.53255587  0.74434973  0.44687077  1
  Au  Au344  1  0.46744413  0.74434973  0.44687077  1
  Au  Au345  1  0.72789098  0.51879613  0.60633659  1
  Au  Au346  1  0.27210902  0.51879613  0.60633659  1
  Au  Au347  1  0.63022342  0.68796133  0.60633659  1
  Au  Au348  1  0.36977658  0.68796133  0.60633659  1
  Au  Au349  1  0.59766755  0.29324253  0.60633659  1
  Au  Au350  1  0.40233245  0.29324253  0.60633659  1
  Au  Au351  1  0.69533513  0.65061818  0.55366599  1
  Au  Au352  1  0.30466487  0.65061818  0.55366599  1
  Au  Au353  1  0.72810673  0.59385611  0.55366599  1
  Au  Au354  1  0.27189327  0.59385611  0.55366599  1
  Au  Au355  1  0.53277160  0.25552571  0.55366599  1
  Au  Au356  1  0.46722840  0.25552571  0.55366599  1
  Au  Au357  1  0.69533513  0.49975089  0.34007555  1
  Au  Au358  1  0.30466487  0.49975089  0.34007555  1
  Au  Au359  1  0.59745182  0.66928976  0.34007555  1
  Au  Au360  1  0.40254818  0.66928976  0.34007555  1
  Au  Au361  1  0.59788331  0.33095936  0.34007555  1
  Au  Au362  1  0.40211669  0.33095936  0.34007555  1
  Au  Au363  1  0.63022342  0.53784138  0.71313181  1
  Au  Au364  1  0.36977658  0.53784138  0.71313181  1
  Au  Au365  1  0.53234011  0.36830251  0.71313181  1
  Au  Au366  1  0.46765989  0.36830251  0.71313181  1
  Au  Au367  1  0.59788331  0.59385611  0.71313181  1
  Au  Au368  1  0.40211669  0.59385611  0.71313181  1
  Au  Au369  1  0.63022342  0.42481547  0.71189521  1
  Au  Au370  1  0.36977658  0.42481547  0.71189521  1
  Au  Au371  1  0.50000000  0.65036907  0.71189521  1
  Au  Au372  1  0.63022342  0.57518453  0.28740495  1
  Au  Au373  1  0.36977658  0.57518453  0.28740495  1
  Au  Au374  1  0.50000000  0.34963093  0.28740495  1
  Au  Au375  1  0.76044684  0.50000000  0.50077799  1
  Au  Au376  1  0.23955316  0.50000000  0.50077799  1
  Au  Au377  1  0.63022342  0.27444640  0.50077799  1
  Au  Au378  1  0.36977658  0.27444640  0.50077799  1
  Au  Au379  1  0.63022342  0.72555360  0.50077799  1
  Au  Au380  1  0.36977658  0.72555360  0.50077799  1
  Au  Au381  1  0.50000000  0.53784138  0.23473435  1
  Au  Au382  1  0.53277160  0.48107931  0.23473435  1
  Au  Au383  1  0.46722840  0.48107931  0.23473435  1
  Au  Au384  1  0.69533513  0.65061818  0.39420017  1
  Au  Au385  1  0.30466487  0.65061818  0.39420017  1
  Au  Au386  1  0.72810673  0.59385611  0.39420017  1
  Au  Au387  1  0.27189327  0.59385611  0.39420017  1
  Au  Au388  1  0.53277160  0.25552571  0.39420017  1
  Au  Au389  1  0.46722840  0.25552571  0.39420017  1
  Au  Au390  1  0.66277929  0.51879613  0.28740495  1
  Au  Au391  1  0.33722071  0.51879613  0.28740495  1
  Au  Au392  1  0.56511171  0.34963093  0.28740495  1
  Au  Au393  1  0.43488829  0.34963093  0.28740495  1
  Au  Au394  1  0.59766758  0.63157293  0.28740495  1
  Au  Au395  1  0.40233242  0.63157293  0.28740495  1
  Au  Au396  1  0.50000000  0.46240773  0.76580241  1
  Au  Au397  1  0.53255587  0.51879613  0.76580241  1
  Au  Au398  1  0.46744413  0.51879613  0.76580241  1
  Au  Au399  1  0.76044684  0.46240773  0.44687077  1
  Au  Au400  1  0.23955316  0.46240773  0.44687077  1
  Au  Au401  1  0.59766755  0.74434973  0.44687077  1
  Au  Au402  1  0.40233245  0.74434973  0.44687077  1
  Au  Au403  1  0.72789100  0.63157293  0.44687077  1
  Au  Au404  1  0.27210900  0.63157293  0.44687077  1
  Au  Au405  1  0.66277929  0.29324253  0.44687077  1
  Au  Au406  1  0.33722071  0.29324253  0.44687077  1
  Au  Au407  1  0.50000000  0.23685413  0.44687077  1
  Au  Au408  1  0.69533513  0.34963093  0.60633659  1
  Au  Au409  1  0.30466487  0.34963093  0.60633659  1
  Au  Au410  1  0.72789100  0.40601933  0.60633659  1
  Au  Au411  1  0.27210900  0.40601933  0.60633659  1
  Au  Au412  1  0.53255587  0.74434973  0.60633659  1
  Au  Au413  1  0.46744413  0.74434973  0.60633659  1
  Au  Au414  1  0.76044684  0.53784138  0.55366599  1
  Au  Au415  1  0.23955315  0.53784138  0.55366599  1
  Au  Au416  1  0.59745182  0.25552571  0.55366599  1
  Au  Au417  1  0.40254818  0.25552571  0.55366599  1
  Au  Au418  1  0.66299502  0.70663291  0.55366599  1
  Au  Au419  1  0.33700498  0.70663291  0.55366599  1
  Au  Au420  1  0.72810673  0.36830251  0.55366599  1
  Au  Au421  1  0.27189327  0.36830251  0.55366599  1
  Au  Au422  1  0.50000000  0.76339498  0.55366599  1
  Au  Au423  1  0.66299502  0.48107931  0.71313181  1
  Au  Au424  1  0.33700498  0.48107931  0.71313181  1
  Au  Au425  1  0.56511171  0.65061818  0.71313181  1
  Au  Au426  1  0.43488829  0.65061818  0.71313181  1
  Au  Au427  1  0.59788331  0.36830251  0.71313181  1
  Au  Au428  1  0.40211669  0.36830251  0.71313181  1
  Au  Au429  1  0.69533513  0.38722320  0.34131217  1
  Au  Au430  1  0.69533513  0.61277680  0.34131217  1
  Au  Au431  1  0.30466487  0.38722320  0.34131217  1
  Au  Au432  1  0.30466487  0.61277680  0.34131217  1
  Au  Au433  1  0.50000000  0.27444640  0.34131217  1
  Au  Au434  1  0.50000000  0.72555360  0.34131217  1
  Au  Au435  1  0.76044684  0.42481547  0.55242939  1
  Au  Au436  1  0.23955316  0.42481547  0.55242939  1
  Au  Au437  1  0.69533513  0.31203867  0.55242939  1
  Au  Au438  1  0.30466487  0.31203867  0.55242939  1
  Au  Au439  1  0.56511171  0.76314587  0.55242939  1
  Au  Au440  1  0.43488829  0.76314587  0.55242939  1
  Au  Au441  1  0.56511171  0.46240773  0.76580241  1
  Au  Au442  1  0.43488829  0.46240773  0.76580241  1
  Au  Au443  1  0.50000000  0.57518453  0.76580241  1
  Au  Au444  1  0.76044684  0.57518453  0.44687077  1
  Au  Au445  1  0.23955316  0.57518453  0.44687077  1
  Au  Au446  1  0.69533513  0.68796133  0.44687077  1
  Au  Au447  1  0.30466487  0.68796133  0.44687077  1
  Au  Au448  1  0.56511171  0.23685413  0.44687077  1
  Au  Au449  1  0.43488829  0.23685413  0.44687077  1
  Au  Au450  1  0.69533513  0.38722320  0.66024381  1
  Au  Au451  1  0.69533513  0.61277680  0.66024381  1
  Au  Au452  1  0.30466487  0.38722320  0.66024381  1
  Au  Au453  1  0.30466487  0.61277680  0.66024381  1
  Au  Au454  1  0.50000000  0.27444640  0.66024381  1
  Au  Au455  1  0.50000000  0.72555360  0.66024381  1
  Au  Au456  1  0.56511171  0.53759227  0.23349775  1
  Au  Au457  1  0.50000000  0.42481547  0.23349775  1
  Au  Au458  1  0.43488829  0.53759227  0.23349775  1
  Au  Au459  1  0.59745182  0.48107931  0.23473435  1
  Au  Au460  1  0.40254818  0.48107931  0.23473435  1
  Au  Au461  1  0.56511171  0.42506458  0.23473435  1
  Au  Au462  1  0.43488829  0.42506458  0.23473435  1
  Au  Au463  1  0.53234011  0.59385611  0.23473435  1
  Au  Au464  1  0.46765989  0.59385611  0.23473435  1
  Au  Au465  1  0.27232476  0.44373616  0.65900719  1
  Au  Au466  1  0.72767525  0.44373616  0.65900719  1
  Au  Au467  1  0.66256353  0.33095936  0.65900719  1
  Au  Au468  1  0.33743647  0.33095936  0.65900719  1
  Au  Au469  1  0.56511171  0.72530449  0.65900719  1
  Au  Au470  1  0.43488829  0.72530449  0.65900719  1
  Au  Au471  1  0.76044684  0.53784138  0.39420017  1
  Au  Au472  1  0.23955315  0.53784138  0.39420017  1
  Au  Au473  1  0.59745182  0.25552571  0.39420017  1
  Au  Au474  1  0.40254818  0.25552571  0.39420017  1
  Au  Au475  1  0.66299502  0.70663291  0.39420017  1
  Au  Au476  1  0.33700498  0.70663291  0.39420017  1
  Au  Au477  1  0.23955316  0.61252769  0.49954137  1
  Au  Au478  1  0.27232476  0.66928976  0.49954137  1
  Au  Au479  1  0.72767525  0.66928976  0.49954137  1
  Au  Au480  1  0.76044685  0.61252769  0.49954137  1
  Au  Au481  1  0.53277160  0.21818256  0.49954137  1
  Au  Au482  1  0.46722840  0.21818256  0.49954137  1
  Au  Au483  1  0.72810673  0.55651296  0.65900719  1
  Au  Au484  1  0.27189327  0.55651296  0.65900719  1
  Au  Au485  1  0.56511171  0.27419729  0.65900719  1
  Au  Au486  1  0.43488829  0.27419729  0.65900719  1
  Au  Au487  1  0.66299502  0.66928976  0.65900719  1
  Au  Au488  1  0.33700498  0.66928976  0.65900719  1
  Au  Au489  1  0.66277927  0.40601933  0.28740495  1
  Au  Au490  1  0.33722073  0.40601933  0.28740495  1
  Au  Au491  1  0.50000000  0.68796133  0.28740495  1
  Au  Au492  1  0.59766755  0.51879613  0.76580241  1
  Au  Au493  1  0.40233245  0.51879613  0.76580241  1
  Au  Au494  1  0.56511171  0.57518453  0.76580241  1
  Au  Au495  1  0.43488829  0.57518453  0.76580241  1
  Au  Au496  1  0.53255584  0.40601933  0.76580241  1
  Au  Au497  1  0.46744416  0.40601933  0.76580241  1
  Au  Au498  1  0.76044684  0.46240773  0.60633659  1
  Au  Au499  1  0.23955316  0.46240773  0.60633659  1
  Au  Au500  1  0.59766755  0.74434973  0.60633659  1
  Au  Au501  1  0.40233245  0.74434973  0.60633659  1
  Au  Au502  1  0.72789100  0.63157293  0.60633659  1
  Au  Au503  1  0.27210900  0.63157293  0.60633659  1
  Au  Au504  1  0.66277929  0.29324253  0.60633659  1
  Au  Au505  1  0.33722071  0.29324253  0.60633659  1
  Au  Au506  1  0.50000000  0.23685413  0.60633659  1
  Au  Au507  1  0.72810673  0.36830251  0.39420017  1
  Au  Au508  1  0.27189327  0.36830251  0.39420017  1
  Au  Au509  1  0.50000000  0.76339498  0.39420017  1
  Au  Au510  1  0.27232476  0.44373616  0.34007555  1
  Au  Au511  1  0.72767525  0.44373616  0.34007555  1
  Au  Au512  1  0.66256353  0.33095936  0.34007555  1
  Au  Au513  1  0.33743647  0.33095936  0.34007555  1
  Au  Au514  1  0.56511171  0.72530449  0.34007555  1
  Au  Au515  1  0.43488829  0.72530449  0.34007555  1
  Au  Au516  1  0.23955316  0.38697409  0.49954137  1
  Au  Au517  1  0.76044685  0.38697409  0.49954137  1
  Au  Au518  1  0.72810673  0.33095936  0.49954137  1
  Au  Au519  1  0.27189327  0.33095936  0.49954137  1
  Au  Au520  1  0.53234011  0.78206656  0.49954137  1
  Au  Au521  1  0.46765989  0.78206656  0.49954137  1
  Au  Au522  1  0.66256353  0.59385611  0.71313181  1
  Au  Au523  1  0.33743647  0.59385611  0.71313181  1
  Au  Au524  1  0.50000000  0.31228778  0.71313181  1
  Au  Au525  1  0.72810673  0.55651296  0.34007555  1
  Au  Au526  1  0.27189327  0.55651296  0.34007555  1
  Au  Au527  1  0.56511171  0.27419729  0.34007555  1
  Au  Au528  1  0.43488829  0.27419729  0.34007555  1
  Au  Au529  1  0.66299502  0.66928976  0.34007555  1
  Au  Au530  1  0.33700498  0.66928976  0.34007555  1
  Au  Au531  1  0.69533513  0.53759227  0.71189521  1
  Au  Au532  1  0.30466487  0.53759227  0.71189521  1
  Au  Au533  1  0.63022342  0.65036907  0.71189521  1
  Au  Au534  1  0.56511171  0.31203867  0.71189521  1
  Au  Au535  1  0.36977658  0.65036907  0.71189521  1
  Au  Au536  1  0.43488829  0.31203867  0.71189521  1
  Au  Au537  1  0.69533513  0.46240773  0.28740495  1
  Au  Au538  1  0.30466487  0.46240773  0.28740495  1
  Au  Au539  1  0.63022342  0.34963093  0.28740495  1
  Au  Au540  1  0.36977658  0.34963093  0.28740495  1
  Au  Au541  1  0.56511171  0.68796133  0.28740495  1
  Au  Au542  1  0.43488829  0.68796133  0.28740495  1
  Au  Au543  1  0.76044684  0.57518453  0.60633659  1
  Au  Au544  1  0.23955316  0.57518453  0.60633659  1
  Au  Au545  1  0.69533513  0.68796133  0.60633659  1
  Au  Au546  1  0.30466487  0.68796133  0.60633659  1
  Au  Au547  1  0.56511171  0.23685413  0.60633659  1
  Au  Au548  1  0.43488829  0.23685413  0.60633659  1
  Au  Au549  1  0.76044684  0.42481547  0.39296357  1
  Au  Au550  1  0.23955316  0.42481547  0.39296357  1
  Au  Au551  1  0.69533513  0.31203867  0.39296357  1
  Au  Au552  1  0.30466487  0.31203867  0.39296357  1
  Au  Au553  1  0.56511171  0.76314587  0.39296357  1
  Au  Au554  1  0.43488829  0.76314587  0.39296357  1
  Au  Au555  1  0.63022342  0.53784138  0.23473435  1
  Au  Au556  1  0.36977658  0.53784138  0.23473435  1
  Au  Au557  1  0.53234011  0.36830251  0.23473435  1
  Au  Au558  1  0.46765989  0.36830251  0.23473435  1
  Au  Au559  1  0.59788331  0.59385611  0.23473435  1
  Au  Au560  1  0.40211669  0.59385611  0.23473435  1
  Au  Au561  1  0.20721305  0.55651296  0.49954137  1
  Au  Au562  1  0.79278696  0.55651296  0.49954137  1
  Au  Au563  1  0.69533513  0.72530449  0.49954137  1
  Au  Au564  1  0.30466487  0.72530449  0.49954137  1
  Au  Au565  1  0.59745182  0.21818256  0.49954137  1
  Au  Au566  1  0.40254818  0.21818256  0.49954137  1
  Au  Au567  1  0.69533513  0.57518453  0.28740495  1
  Au  Au568  1  0.30466487  0.57518453  0.28740495  1
  Au  Au569  1  0.66277927  0.63157293  0.28740495  1
  Au  Au570  1  0.33722073  0.63157293  0.28740495  1
  Au  Au571  1  0.53255587  0.29324253  0.28740495  1
  Au  Au572  1  0.46744413  0.29324253  0.28740495  1
  Au  Au573  1  0.63022342  0.46240773  0.76580241  1
  Au  Au574  1  0.36977658  0.46240773  0.76580241  1
  Au  Au575  1  0.53255584  0.63157293  0.76580241  1
  Au  Au576  1  0.46744416  0.63157293  0.76580241  1
  Au  Au577  1  0.59766758  0.40601933  0.76580241  1
  Au  Au578  1  0.40233242  0.40601933  0.76580241  1
  Au  Au579  1  0.79300271  0.51879613  0.44687077  1
  Au  Au580  1  0.20699729  0.51879613  0.44687077  1
  Au  Au581  1  0.66277929  0.74434973  0.44687077  1
  Au  Au582  1  0.33722071  0.74434973  0.44687077  1
  Au  Au583  1  0.63022342  0.23685413  0.44687077  1
  Au  Au584  1  0.36977658  0.23685413  0.44687077  1
  Au  Au585  1  0.20678156  0.44373616  0.49954137  1
  Au  Au586  1  0.69533513  0.27419729  0.49954137  1
  Au  Au587  1  0.30466487  0.27419729  0.49954137  1
  Au  Au588  1  0.79321845  0.44373616  0.49954137  1
  Au  Au589  1  0.59788331  0.78206656  0.49954137  1
  Au  Au590  1  0.40211669  0.78206656  0.49954137  1
  Au  Au591  1  0.66256353  0.36830251  0.71313181  1
  Au  Au592  1  0.33743647  0.36830251  0.71313181  1
  Au  Au593  1  0.69533513  0.42506458  0.71313181  1
  Au  Au594  1  0.30466487  0.42506458  0.71313181  1
  Au  Au595  1  0.53277160  0.70663291  0.71313181  1
  Au  Au596  1  0.46722840  0.70663291  0.71313181  1
  Au  Au597  1  0.79321844  0.48107931  0.55366599  1
  Au  Au598  1  0.20678155  0.48107931  0.55366599  1
  Au  Au599  1  0.63022342  0.76339498  0.55366599  1
  Au  Au600  1  0.36977658  0.76339498  0.55366599  1
  Au  Au601  1  0.66299502  0.25552571  0.55366599  1
  Au  Au602  1  0.33700498  0.25552571  0.55366599  1
  Au  Au603  1  0.76044684  0.50000000  0.34131217  1
  Au  Au604  1  0.23955316  0.50000000  0.34131217  1
  Au  Au605  1  0.63022342  0.27444640  0.34131217  1
  Au  Au606  1  0.36977658  0.27444640  0.34131217  1
  Au  Au607  1  0.63022342  0.72555360  0.34131217  1
  Au  Au608  1  0.36977658  0.72555360  0.34131217  1
  Au  Au609  1  0.76044684  0.65036907  0.55242939  1
  Au  Au610  1  0.23955316  0.65036907  0.55242939  1
  Au  Au611  1  0.50000000  0.19926187  0.55242939  1
  Au  Au612  1  0.63022342  0.57518453  0.76580241  1
  Au  Au613  1  0.36977658  0.57518453  0.76580241  1
  Au  Au614  1  0.50000000  0.34963093  0.76580241  1
  Au  Au615  1  0.76044684  0.34963093  0.44687077  1
  Au  Au616  1  0.23955316  0.34963093  0.44687077  1
  Au  Au617  1  0.50000000  0.80073813  0.44687077  1
  Au  Au618  1  0.76044684  0.50000000  0.66024381  1
  Au  Au619  1  0.23955316  0.50000000  0.66024381  1
  Au  Au620  1  0.63022342  0.27444640  0.66024381  1
  Au  Au621  1  0.36977658  0.27444640  0.66024381  1
  Au  Au622  1  0.63022342  0.72555360  0.66024381  1
  Au  Au623  1  0.36977658  0.72555360  0.66024381  1
  Au  Au624  1  0.63022342  0.42481547  0.23349775  1
  Au  Au625  1  0.36977658  0.42481547  0.23349775  1
  Au  Au626  1  0.50000000  0.65036907  0.23349775  1
  Au  Au627  1  0.66299502  0.48107931  0.23473435  1
  Au  Au628  1  0.33700498  0.48107931  0.23473435  1
  Au  Au629  1  0.56511171  0.65061818  0.23473435  1
  Au  Au630  1  0.43488829  0.65061818  0.23473435  1
  Au  Au631  1  0.59788331  0.36830251  0.23473435  1
  Au  Au632  1  0.40211669  0.36830251  0.23473435  1
  Au  Au633  1  0.79278695  0.59385611  0.55366599  1
  Au  Au634  1  0.20721304  0.59385611  0.55366599  1
  Au  Au635  1  0.72767524  0.70663291  0.55366599  1
  Au  Au636  1  0.27232475  0.70663291  0.55366599  1
  Au  Au637  1  0.56511171  0.19951098  0.55366599  1
  Au  Au638  1  0.43488829  0.19951098  0.55366599  1
  Au  Au639  1  0.72789098  0.51879613  0.28740495  1
  Au  Au640  1  0.27210902  0.51879613  0.28740495  1
  Au  Au641  1  0.63022342  0.68796133  0.28740495  1
  Au  Au642  1  0.36977658  0.68796133  0.28740495  1
  Au  Au643  1  0.59766755  0.29324253  0.28740495  1
  Au  Au644  1  0.40233245  0.29324253  0.28740495  1
  Au  Au645  1  0.66277929  0.51879613  0.76580241  1
  Au  Au646  1  0.33722071  0.51879613  0.76580241  1
  Au  Au647  1  0.56511171  0.34963093  0.76580241  1
  Au  Au648  1  0.43488829  0.34963093  0.76580241  1
  Au  Au649  1  0.59766758  0.63157293  0.76580241  1
  Au  Au650  1  0.40233242  0.63157293  0.76580241  1
  Au  Au651  1  0.79300269  0.40601933  0.44687077  1
  Au  Au652  1  0.20699731  0.40601933  0.44687077  1
  Au  Au653  1  0.72789098  0.29324253  0.44687077  1
  Au  Au654  1  0.27210902  0.29324253  0.44687077  1
  Au  Au655  1  0.56511171  0.80073813  0.44687077  1
  Au  Au656  1  0.43488829  0.80073813  0.44687077  1
  Au  Au657  1  0.79300271  0.51879613  0.60633659  1
  Au  Au658  1  0.20699729  0.51879613  0.60633659  1
  Au  Au659  1  0.66277929  0.74434973  0.60633659  1
  Au  Au660  1  0.33722071  0.74434973  0.60633659  1
  Au  Au661  1  0.63022342  0.23685413  0.60633659  1
  Au  Au662  1  0.36977658  0.23685413  0.60633659  1
  Au  Au663  1  0.79321844  0.48107931  0.39420017  1
  Au  Au664  1  0.20678155  0.48107931  0.39420017  1
  Au  Au665  1  0.63022342  0.76339498  0.39420017  1
  Au  Au666  1  0.36977658  0.76339498  0.39420017  1
  Au  Au667  1  0.66299502  0.25552571  0.39420017  1
  Au  Au668  1  0.33700498  0.25552571  0.39420017  1
  Au  Au669  1  0.72767524  0.48107931  0.71313181  1
  Au  Au670  1  0.27232475  0.48107931  0.71313181  1
  Au  Au671  1  0.63022342  0.31228778  0.71313181  1
  Au  Au672  1  0.36977658  0.31228778  0.71313181  1
  Au  Au673  1  0.59745182  0.70663291  0.71313181  1
  Au  Au674  1  0.40254818  0.70663291  0.71313181  1
  Au  Au675  1  0.50000000  0.50000000  0.18184635  1
  Au  Au676  1  0.76044684  0.34963093  0.60633659  1
  Au  Au677  1  0.23955316  0.34963093  0.60633659  1
  Au  Au678  1  0.50000000  0.80073813  0.60633659  1
  Au  Au679  1  0.76044684  0.65036907  0.39296357  1
  Au  Au680  1  0.23955316  0.65036907  0.39296357  1
  Au  Au681  1  0.50000000  0.19926187  0.39296357  1
  Au  Au682  1  0.50000000  0.50000000  0.81970964  1
  Au  Au683  1  0.66256353  0.59385611  0.23473435  1
  Au  Au684  1  0.33743647  0.59385611  0.23473435  1
  Au  Au685  1  0.50000000  0.31228778  0.23473435  1
  Au  Au686  1  0.56511171  0.49975089  0.81847301  1
  Au  Au687  1  0.43488829  0.49975089  0.81847301  1
  Au  Au688  1  0.53234011  0.55651296  0.81847301  1
  Au  Au689  1  0.46765989  0.55651296  0.81847301  1
  Au  Au690  1  0.53277160  0.44373616  0.81847301  1
  Au  Au691  1  0.46722840  0.44373616  0.81847301  1
  Au  Au692  1  0.79278695  0.59385611  0.39420017  1
  Au  Au693  1  0.20721304  0.59385611  0.39420017  1
  Au  Au694  1  0.72767524  0.70663291  0.39420017  1
  Au  Au695  1  0.27232475  0.70663291  0.39420017  1
  Au  Au696  1  0.56511171  0.19951098  0.39420017  1
  Au  Au697  1  0.43488829  0.19951098  0.39420017  1
  Au  Au698  1  0.23955316  0.61252769  0.65900719  1
  Au  Au699  1  0.27232476  0.66928976  0.65900719  1
  Au  Au700  1  0.72767525  0.66928976  0.65900719  1
  Au  Au701  1  0.76044685  0.61252769  0.65900719  1
  Au  Au702  1  0.53277160  0.21818256  0.65900719  1
  Au  Au703  1  0.46722840  0.21818256  0.65900719  1
  Au  Au704  1  0.23955316  0.38697409  0.65900719  1
  Au  Au705  1  0.76044685  0.38697409  0.65900719  1
  Au  Au706  1  0.72810673  0.33095936  0.65900719  1
  Au  Au707  1  0.27189327  0.33095936  0.65900719  1
  Au  Au708  1  0.53234011  0.78206656  0.65900719  1
  Au  Au709  1  0.46765989  0.78206656  0.65900719  1
  Au  Au710  1  0.79278695  0.36830251  0.55366599  1
  Au  Au711  1  0.20721304  0.36830251  0.55366599  1
  Au  Au712  1  0.76044684  0.31228778  0.55366599  1
  Au  Au713  1  0.23955315  0.31228778  0.55366599  1
  Au  Au714  1  0.53234011  0.81940971  0.55366599  1
  Au  Au715  1  0.46765989  0.81940971  0.55366599  1
  Au  Au716  1  0.69533513  0.34963093  0.28740495  1
  Au  Au717  1  0.30466487  0.34963093  0.28740495  1
  Au  Au718  1  0.72789100  0.40601933  0.28740495  1
  Au  Au719  1  0.27210900  0.40601933  0.28740495  1
  Au  Au720  1  0.53255587  0.74434973  0.28740495  1
  Au  Au721  1  0.46744413  0.74434973  0.28740495  1
  Au  Au722  1  0.66277927  0.40601933  0.76580241  1
  Au  Au723  1  0.33722073  0.40601933  0.76580241  1
  Au  Au724  1  0.50000000  0.68796133  0.76580241  1
  Au  Au725  1  0.79300269  0.63157293  0.44687077  1
  Au  Au726  1  0.20699731  0.63157293  0.44687077  1
  Au  Au727  1  0.76044684  0.68796133  0.44687077  1
  Au  Au728  1  0.23955316  0.68796133  0.44687077  1
  Au  Au729  1  0.53255584  0.18046573  0.44687077  1
  Au  Au730  1  0.46744416  0.18046573  0.44687077  1
  Au  Au731  1  0.79300269  0.40601933  0.60633659  1
  Au  Au732  1  0.20699731  0.40601933  0.60633659  1
  Au  Au733  1  0.72789098  0.29324253  0.60633659  1
  Au  Au734  1  0.27210902  0.29324253  0.60633659  1
  Au  Au735  1  0.56511171  0.80073813  0.60633659  1
  Au  Au736  1  0.43488829  0.80073813  0.60633659  1
  Au  Au737  1  0.17444145  0.49975089  0.49954137  1
  Au  Au738  1  0.82555856  0.49975089  0.49954137  1
  Au  Au739  1  0.66256353  0.78206656  0.49954137  1
  Au  Au740  1  0.33743647  0.78206656  0.49954137  1
  Au  Au741  1  0.66299502  0.21818256  0.49954137  1
  Au  Au742  1  0.33700498  0.21818256  0.49954137  1
  Au  Au743  1  0.23955316  0.61252769  0.34007555  1
  Au  Au744  1  0.27232476  0.66928976  0.34007555  1
  Au  Au745  1  0.72767525  0.66928976  0.34007555  1
  Au  Au746  1  0.76044685  0.61252769  0.34007555  1
  Au  Au747  1  0.53277160  0.21818256  0.34007555  1
  Au  Au748  1  0.46722840  0.21818256  0.34007555  1
  Au  Au749  1  0.23955316  0.38697409  0.34007555  1
  Au  Au750  1  0.76044685  0.38697409  0.34007555  1
  Au  Au751  1  0.72810673  0.33095936  0.34007555  1
  Au  Au752  1  0.27189327  0.33095936  0.34007555  1
  Au  Au753  1  0.53234011  0.78206656  0.34007555  1
  Au  Au754  1  0.46765989  0.78206656  0.34007555  1
  Au  Au755  1  0.69533513  0.65061818  0.71313181  1
  Au  Au756  1  0.30466487  0.65061818  0.71313181  1
  Au  Au757  1  0.72810673  0.59385611  0.71313181  1
  Au  Au758  1  0.27189327  0.59385611  0.71313181  1
  Au  Au759  1  0.53277160  0.25552571  0.71313181  1
  Au  Au760  1  0.46722840  0.25552571  0.71313181  1
  Au  Au761  1  0.56511171  0.49975089  0.18060973  1
  Au  Au762  1  0.43488829  0.49975089  0.18060973  1
  Au  Au763  1  0.53234011  0.55651296  0.18060973  1
  Au  Au764  1  0.46765989  0.55651296  0.18060973  1
  Au  Au765  1  0.53277160  0.44373616  0.18060973  1
  Au  Au766  1  0.46722840  0.44373616  0.18060973  1
  Au  Au767  1  0.82555856  0.53759227  0.55242939  1
  Au  Au768  1  0.17444144  0.53759227  0.55242939  1
  Au  Au769  1  0.69533513  0.76314587  0.55242939  1
  Au  Au770  1  0.63022342  0.19926187  0.55242939  1
  Au  Au771  1  0.30466487  0.76314587  0.55242939  1
  Au  Au772  1  0.36977658  0.19926187  0.55242939  1
  Au  Au773  1  0.69533513  0.46240773  0.76580241  1
  Au  Au774  1  0.30466487  0.46240773  0.76580241  1
  Au  Au775  1  0.63022342  0.34963093  0.76580241  1
  Au  Au776  1  0.36977658  0.34963093  0.76580241  1
  Au  Au777  1  0.56511171  0.68796133  0.76580241  1
  Au  Au778  1  0.43488829  0.68796133  0.76580241  1
  Au  Au779  1  0.82555856  0.46240773  0.44687077  1
  Au  Au780  1  0.17444144  0.46240773  0.44687077  1
  Au  Au781  1  0.69533513  0.23685413  0.44687077  1
  Au  Au782  1  0.30466487  0.23685413  0.44687077  1
  Au  Au783  1  0.63022342  0.80073813  0.44687077  1
  Au  Au784  1  0.36977658  0.80073813  0.44687077  1
  Au  Au785  1  0.69533513  0.53759227  0.23349775  1
  Au  Au786  1  0.30466487  0.53759227  0.23349775  1
  Au  Au787  1  0.63022342  0.65036907  0.23349775  1
  Au  Au788  1  0.56511171  0.31203867  0.23349775  1
  Au  Au789  1  0.36977658  0.65036907  0.23349775  1
  Au  Au790  1  0.43488829  0.31203867  0.23349775  1
