# generated using pymatgen
data_Ni433Pt424
_symmetry_space_group_name_H-M   'P 1'
_cell_length_a   60.00000000
_cell_length_b   60.00000000
_cell_length_c   60.00000000
_cell_angle_alpha   90.00000000
_cell_angle_beta   90.00000000
_cell_angle_gamma   90.00000000
_symmetry_Int_Tables_number   1
_chemical_formula_structural   Ni433Pt424
_chemical_formula_sum   'Ni1299 Pt1272'
_cell_volume   216000.00000000
_cell_formula_units_Z   3
loop_
 _symmetry_equiv_pos_site_id
 _symmetry_equiv_pos_as_xyz
  1  'x, y, z'
loop_
 _atom_site_type_symbol
 _atom_site_label
 _atom_site_symmetry_multiplicity
 _atom_site_fract_x
 _atom_site_fract_y
 _atom_site_fract_z
 _atom_site_occupancy
  Ni  Ni0  1  0.50000000  0.49999999  0.50000000  1
  Ni  Ni1  1  0.46787770  0.49999999  0.46787770  1
  Ni  Ni2  1  0.53212232  0.49999999  0.46787770  1
  Ni  Ni3  1  0.46787770  0.49999999  0.53212232  1
  Ni  Ni4  1  0.53212232  0.49999999  0.53212232  1
  Ni  Ni5  1  0.50000000  0.44053754  0.50000000  1
  Ni  Ni6  1  0.50000000  0.55946244  0.50000000  1
  Ni  Ni7  1  0.56424462  0.49999999  0.50000000  1
  Ni  Ni8  1  0.50000000  0.49999999  0.56424462  1
  Ni  Ni9  1  0.50000000  0.49999999  0.43575539  1
  Ni  Ni10  1  0.43575539  0.49999999  0.50000000  1
  Ni  Ni11  1  0.46787770  0.44053754  0.46787770  1
  Ni  Ni12  1  0.46787770  0.55946244  0.46787770  1
  Ni  Ni13  1  0.53212232  0.55946244  0.46787770  1
  Ni  Ni14  1  0.46787770  0.44053754  0.53212232  1
  Ni  Ni15  1  0.53212232  0.44053754  0.46787770  1
  Ni  Ni16  1  0.46787770  0.55946244  0.53212232  1
  Ni  Ni17  1  0.53212232  0.44053754  0.53212232  1
  Ni  Ni18  1  0.53212232  0.55946244  0.53212232  1
  Ni  Ni19  1  0.56424462  0.44053754  0.50000000  1
  Ni  Ni20  1  0.56424462  0.55946244  0.50000000  1
  Ni  Ni21  1  0.50000000  0.55946244  0.43575539  1
  Ni  Ni22  1  0.50000000  0.44053754  0.56424462  1
  Ni  Ni23  1  0.43575539  0.44053754  0.50000000  1
  Ni  Ni24  1  0.50000000  0.44053754  0.43575539  1
  Ni  Ni25  1  0.43575539  0.55946244  0.50000000  1
  Ni  Ni26  1  0.50000000  0.55946244  0.56424462  1
  Ni  Ni27  1  0.56424462  0.49999999  0.43575539  1
  Ni  Ni28  1  0.43575539  0.49999999  0.56424462  1
  Ni  Ni29  1  0.43575539  0.49999999  0.43575539  1
  Ni  Ni30  1  0.56424462  0.49999999  0.56424462  1
  Ni  Ni31  1  0.40363309  0.49999999  0.46787770  1
  Ni  Ni32  1  0.46787770  0.49999999  0.40363309  1
  Ni  Ni33  1  0.40363309  0.49999999  0.53212232  1
  Ni  Ni34  1  0.53212232  0.49999999  0.40363309  1
  Ni  Ni35  1  0.46787770  0.49999999  0.59636694  1
  Ni  Ni36  1  0.59636694  0.49999999  0.46787770  1
  Ni  Ni37  1  0.53212232  0.49999999  0.59636694  1
  Ni  Ni38  1  0.59636694  0.49999999  0.53212232  1
  Ni  Ni39  1  0.56424462  0.44053754  0.56424462  1
  Ni  Ni40  1  0.56424462  0.44053754  0.43575539  1
  Ni  Ni41  1  0.56424462  0.55946244  0.43575539  1
  Ni  Ni42  1  0.43575539  0.44053754  0.56424462  1
  Ni  Ni43  1  0.43575539  0.44053754  0.43575539  1
  Ni  Ni44  1  0.56424462  0.55946244  0.56424462  1
  Ni  Ni45  1  0.43575539  0.55946244  0.43575539  1
  Ni  Ni46  1  0.43575539  0.55946244  0.56424462  1
  Ni  Ni47  1  0.46787770  0.44053754  0.40363309  1
  Ni  Ni48  1  0.40363309  0.44053754  0.46787770  1
  Ni  Ni49  1  0.46787770  0.55946244  0.40363309  1
  Ni  Ni50  1  0.40363309  0.55946244  0.46787770  1
  Ni  Ni51  1  0.53212232  0.44053754  0.40363309  1
  Ni  Ni52  1  0.53212232  0.55946244  0.40363309  1
  Ni  Ni53  1  0.40363309  0.44053754  0.53212232  1
  Ni  Ni54  1  0.40363309  0.55946244  0.53212232  1
  Ni  Ni55  1  0.46787770  0.44053754  0.59636694  1
  Ni  Ni56  1  0.46787770  0.55946244  0.59636694  1
  Ni  Ni57  1  0.59636694  0.55946244  0.46787770  1
  Ni  Ni58  1  0.59636694  0.44053754  0.46787770  1
  Ni  Ni59  1  0.53212232  0.55946244  0.59636694  1
  Ni  Ni60  1  0.53212232  0.44053754  0.59636694  1
  Ni  Ni61  1  0.59636694  0.44053754  0.53212232  1
  Ni  Ni62  1  0.59636694  0.55946244  0.53212232  1
  Ni  Ni63  1  0.50000000  0.38107509  0.50000000  1
  Ni  Ni64  1  0.50000000  0.61892489  0.50000000  1
  Ni  Ni65  1  0.46787770  0.61892489  0.46787770  1
  Ni  Ni66  1  0.46787770  0.38107509  0.46787770  1
  Ni  Ni67  1  0.53212232  0.61892489  0.46787770  1
  Ni  Ni68  1  0.53212232  0.38107509  0.46787770  1
  Ni  Ni69  1  0.46787770  0.38107509  0.53212232  1
  Ni  Ni70  1  0.46787770  0.61892489  0.53212232  1
  Ni  Ni71  1  0.53212232  0.61892489  0.53212232  1
  Ni  Ni72  1  0.53212232  0.38107509  0.53212232  1
  Ni  Ni73  1  0.50000000  0.49999999  0.62848924  1
  Ni  Ni74  1  0.50000000  0.49999999  0.37151077  1
  Ni  Ni75  1  0.62848924  0.49999999  0.50000000  1
  Ni  Ni76  1  0.37151077  0.49999999  0.50000000  1
  Ni  Ni77  1  0.56424462  0.38107509  0.50000000  1
  Ni  Ni78  1  0.56424462  0.61892489  0.50000000  1
  Ni  Ni79  1  0.50000000  0.61892489  0.43575539  1
  Ni  Ni80  1  0.50000000  0.38107509  0.43575539  1
  Ni  Ni81  1  0.50000000  0.38107509  0.56424462  1
  Ni  Ni82  1  0.43575539  0.38107509  0.50000000  1
  Ni  Ni83  1  0.43575539  0.61892489  0.50000000  1
  Ni  Ni84  1  0.50000000  0.61892489  0.56424462  1
  Ni  Ni85  1  0.40363309  0.49999999  0.40363309  1
  Ni  Ni86  1  0.40363309  0.49999999  0.59636694  1
  Ni  Ni87  1  0.59636694  0.49999999  0.40363309  1
  Ni  Ni88  1  0.59636694  0.49999999  0.59636694  1
  Ni  Ni89  1  0.50000000  0.44053754  0.62848924  1
  Ni  Ni90  1  0.50000000  0.55946244  0.62848924  1
  Ni  Ni91  1  0.50000000  0.55946244  0.37151077  1
  Ni  Ni92  1  0.62848924  0.44053754  0.50000000  1
  Ni  Ni93  1  0.37151077  0.44053754  0.50000000  1
  Ni  Ni94  1  0.50000000  0.44053754  0.37151077  1
  Ni  Ni95  1  0.62848924  0.55946244  0.50000000  1
  Ni  Ni96  1  0.37151077  0.55946244  0.50000000  1
  Ni  Ni97  1  0.56424462  0.49999999  0.62848924  1
  Ni  Ni98  1  0.43575539  0.49999999  0.62848924  1
  Ni  Ni99  1  0.56424462  0.49999999  0.37151077  1
  Ni  Ni100  1  0.62848924  0.49999999  0.43575539  1
  Ni  Ni101  1  0.43575539  0.49999999  0.37151077  1
  Ni  Ni102  1  0.37151077  0.49999999  0.56424462  1
  Ni  Ni103  1  0.37151077  0.49999999  0.43575539  1
  Ni  Ni104  1  0.62848924  0.49999999  0.56424462  1
  Ni  Ni105  1  0.40363309  0.44053754  0.40363309  1
  Ni  Ni106  1  0.40363309  0.55946244  0.40363309  1
  Ni  Ni107  1  0.40363309  0.44053754  0.59636694  1
  Ni  Ni108  1  0.59636694  0.55946244  0.40363309  1
  Ni  Ni109  1  0.40363309  0.55946244  0.59636694  1
  Ni  Ni110  1  0.59636694  0.44053754  0.40363309  1
  Ni  Ni111  1  0.59636694  0.44053754  0.59636694  1
  Ni  Ni112  1  0.59636694  0.55946244  0.59636694  1
  Ni  Ni113  1  0.56424462  0.61892489  0.43575539  1
  Ni  Ni114  1  0.56424462  0.38107509  0.56424462  1
  Ni  Ni115  1  0.56424462  0.38107509  0.43575539  1
  Ni  Ni116  1  0.43575539  0.61892489  0.56424462  1
  Ni  Ni117  1  0.43575539  0.61892489  0.43575539  1
  Ni  Ni118  1  0.56424462  0.61892489  0.56424462  1
  Ni  Ni119  1  0.43575539  0.38107509  0.43575539  1
  Ni  Ni120  1  0.43575539  0.38107509  0.56424462  1
  Ni  Ni121  1  0.56424462  0.44053754  0.62848924  1
  Ni  Ni122  1  0.56424462  0.55946244  0.62848924  1
  Ni  Ni123  1  0.43575539  0.44053754  0.62848924  1
  Ni  Ni124  1  0.56424462  0.44053754  0.37151077  1
  Ni  Ni125  1  0.56424462  0.55946244  0.37151077  1
  Ni  Ni126  1  0.43575539  0.55946244  0.62848924  1
  Ni  Ni127  1  0.62848924  0.44053754  0.43575539  1
  Ni  Ni128  1  0.62848924  0.55946244  0.43575539  1
  Ni  Ni129  1  0.43575539  0.44053754  0.37151077  1
  Ni  Ni130  1  0.37151077  0.44053754  0.43575539  1
  Ni  Ni131  1  0.43575539  0.55946244  0.37151077  1
  Ni  Ni132  1  0.37151077  0.44053754  0.56424462  1
  Ni  Ni133  1  0.62848924  0.55946244  0.56424462  1
  Ni  Ni134  1  0.62848924  0.44053754  0.56424462  1
  Ni  Ni135  1  0.37151077  0.55946244  0.56424462  1
  Ni  Ni136  1  0.37151077  0.55946244  0.43575539  1
  Ni  Ni137  1  0.46787770  0.38107509  0.40363309  1
  Ni  Ni138  1  0.40363309  0.38107509  0.46787770  1
  Ni  Ni139  1  0.46787770  0.61892489  0.40363309  1
  Ni  Ni140  1  0.40363309  0.61892489  0.46787770  1
  Ni  Ni141  1  0.53212232  0.61892489  0.40363309  1
  Ni  Ni142  1  0.53212232  0.38107509  0.40363309  1
  Ni  Ni143  1  0.40363309  0.38107509  0.53212232  1
  Ni  Ni144  1  0.40363309  0.61892489  0.53212232  1
  Ni  Ni145  1  0.46787770  0.38107509  0.59636694  1
  Ni  Ni146  1  0.46787770  0.61892489  0.59636694  1
  Ni  Ni147  1  0.59636694  0.61892489  0.46787770  1
  Ni  Ni148  1  0.59636694  0.38107509  0.46787770  1
  Ni  Ni149  1  0.53212232  0.61892489  0.59636694  1
  Ni  Ni150  1  0.53212232  0.38107509  0.59636694  1
  Ni  Ni151  1  0.59636694  0.38107509  0.53212232  1
  Ni  Ni152  1  0.59636694  0.61892489  0.53212232  1
  Ni  Ni153  1  0.46787770  0.49999999  0.33938847  1
  Ni  Ni154  1  0.33938847  0.49999999  0.46787770  1
  Ni  Ni155  1  0.33938847  0.49999999  0.53212232  1
  Ni  Ni156  1  0.53212232  0.49999999  0.33938847  1
  Ni  Ni157  1  0.66061155  0.49999999  0.46787770  1
  Ni  Ni158  1  0.46787770  0.49999999  0.66061155  1
  Ni  Ni159  1  0.66061155  0.49999999  0.53212232  1
  Ni  Ni160  1  0.53212232  0.49999999  0.66061155  1
  Ni  Ni161  1  0.46787770  0.55946244  0.33938847  1
  Ni  Ni162  1  0.46787770  0.44053754  0.33938847  1
  Ni  Ni163  1  0.33938847  0.55946244  0.46787770  1
  Ni  Ni164  1  0.33938847  0.44053754  0.46787770  1
  Ni  Ni165  1  0.53212232  0.55946244  0.33938847  1
  Ni  Ni166  1  0.53212232  0.44053754  0.33938847  1
  Ni  Ni167  1  0.33938847  0.55946244  0.53212232  1
  Ni  Ni168  1  0.33938847  0.44053754  0.53212232  1
  Ni  Ni169  1  0.66061155  0.55946244  0.46787770  1
  Ni  Ni170  1  0.66061155  0.44053754  0.46787770  1
  Ni  Ni171  1  0.46787770  0.44053754  0.66061155  1
  Ni  Ni172  1  0.46787770  0.55946244  0.66061155  1
  Ni  Ni173  1  0.66061155  0.44053754  0.53212232  1
  Ni  Ni174  1  0.66061155  0.55946244  0.53212232  1
  Ni  Ni175  1  0.53212232  0.44053754  0.66061155  1
  Ni  Ni176  1  0.53212232  0.55946244  0.66061155  1
  Ni  Ni177  1  0.50000000  0.38107509  0.62848924  1
  Ni  Ni178  1  0.50000000  0.61892489  0.62848924  1
  Ni  Ni179  1  0.50000000  0.61892489  0.37151077  1
  Ni  Ni180  1  0.50000000  0.38107509  0.37151077  1
  Ni  Ni181  1  0.62848924  0.61892489  0.50000000  1
  Ni  Ni182  1  0.62848924  0.38107509  0.50000000  1
  Ni  Ni183  1  0.37151077  0.38107509  0.50000000  1
  Ni  Ni184  1  0.37151077  0.61892489  0.50000000  1
  Ni  Ni185  1  0.50000000  0.32161264  0.50000000  1
  Ni  Ni186  1  0.50000000  0.67838734  0.50000000  1
  Ni  Ni187  1  0.40363309  0.38107509  0.40363309  1
  Ni  Ni188  1  0.40363309  0.61892489  0.40363309  1
  Ni  Ni189  1  0.59636694  0.61892489  0.40363309  1
  Ni  Ni190  1  0.59636694  0.38107509  0.40363309  1
  Ni  Ni191  1  0.40363309  0.38107509  0.59636694  1
  Ni  Ni192  1  0.40363309  0.61892489  0.59636694  1
  Ni  Ni193  1  0.59636694  0.38107509  0.59636694  1
  Ni  Ni194  1  0.59636694  0.61892489  0.59636694  1
  Ni  Ni195  1  0.37151077  0.49999999  0.62848924  1
  Ni  Ni196  1  0.62848924  0.49999999  0.62848924  1
  Ni  Ni197  1  0.62848924  0.49999999  0.37151077  1
  Ni  Ni198  1  0.37151077  0.49999999  0.37151077  1
  Ni  Ni199  1  0.46787770  0.32161264  0.46787770  1
  Ni  Ni200  1  0.46787770  0.67838734  0.46787770  1
  Ni  Ni201  1  0.53212232  0.32161264  0.46787770  1
  Ni  Ni202  1  0.53212232  0.67838734  0.46787770  1
  Ni  Ni203  1  0.46787770  0.32161264  0.53212232  1
  Ni  Ni204  1  0.46787770  0.67838734  0.53212232  1
  Ni  Ni205  1  0.53212232  0.32161264  0.53212232  1
  Ni  Ni206  1  0.53212232  0.67838734  0.53212232  1
  Ni  Ni207  1  0.56424462  0.61892489  0.62848924  1
  Ni  Ni208  1  0.56424462  0.38107509  0.62848924  1
  Ni  Ni209  1  0.43575539  0.38107509  0.62848924  1
  Ni  Ni210  1  0.43575539  0.61892489  0.62848924  1
  Ni  Ni211  1  0.56424462  0.61892489  0.37151077  1
  Ni  Ni212  1  0.62848924  0.38107509  0.43575539  1
  Ni  Ni213  1  0.62848924  0.61892489  0.43575539  1
  Ni  Ni214  1  0.62848924  0.38107509  0.56424462  1
  Ni  Ni215  1  0.56424462  0.38107509  0.37151077  1
  Ni  Ni216  1  0.43575539  0.61892489  0.37151077  1
  Ni  Ni217  1  0.43575539  0.38107509  0.37151077  1
  Ni  Ni218  1  0.37151077  0.38107509  0.43575539  1
  Ni  Ni219  1  0.37151077  0.38107509  0.56424462  1
  Ni  Ni220  1  0.62848924  0.61892489  0.56424462  1
  Ni  Ni221  1  0.37151077  0.61892489  0.43575539  1
  Ni  Ni222  1  0.37151077  0.61892489  0.56424462  1
  Ni  Ni223  1  0.40363309  0.49999999  0.33938847  1
  Ni  Ni224  1  0.33938847  0.49999999  0.40363309  1
  Ni  Ni225  1  0.33938847  0.49999999  0.59636694  1
  Ni  Ni226  1  0.59636694  0.49999999  0.33938847  1
  Ni  Ni227  1  0.66061155  0.49999999  0.40363309  1
  Ni  Ni228  1  0.40363309  0.49999999  0.66061155  1
  Ni  Ni229  1  0.66061155  0.49999999  0.59636694  1
  Ni  Ni230  1  0.59636694  0.49999999  0.66061155  1
  Ni  Ni231  1  0.56424462  0.32161264  0.50000000  1
  Ni  Ni232  1  0.56424462  0.67838734  0.50000000  1
  Ni  Ni233  1  0.50000000  0.32161264  0.43575539  1
  Ni  Ni234  1  0.50000000  0.32161264  0.56424462  1
  Ni  Ni235  1  0.43575539  0.32161264  0.50000000  1
  Ni  Ni236  1  0.50000000  0.67838734  0.43575539  1
  Ni  Ni237  1  0.50000000  0.67838734  0.56424462  1
  Ni  Ni238  1  0.43575539  0.67838734  0.50000000  1
  Ni  Ni239  1  0.62848924  0.44053754  0.62848924  1
  Ni  Ni240  1  0.37151077  0.44053754  0.62848924  1
  Ni  Ni241  1  0.62848924  0.55946244  0.62848924  1
  Ni  Ni242  1  0.62848924  0.44053754  0.37151077  1
  Ni  Ni243  1  0.62848924  0.55946244  0.37151077  1
  Ni  Ni244  1  0.37151077  0.55946244  0.62848924  1
  Ni  Ni245  1  0.37151077  0.44053754  0.37151077  1
  Ni  Ni246  1  0.37151077  0.55946244  0.37151077  1
  Ni  Ni247  1  0.69273385  0.49999999  0.50000000  1
  Ni  Ni248  1  0.30726615  0.49999999  0.50000000  1
  Ni  Ni249  1  0.50000000  0.49999999  0.30726615  1
  Ni  Ni250  1  0.50000000  0.49999999  0.69273385  1
  Ni  Ni251  1  0.40363309  0.44053754  0.33938847  1
  Ni  Ni252  1  0.33938847  0.44053754  0.40363309  1
  Ni  Ni253  1  0.33938847  0.55946244  0.40363309  1
  Ni  Ni254  1  0.40363309  0.55946244  0.33938847  1
  Ni  Ni255  1  0.59636694  0.55946244  0.33938847  1
  Ni  Ni256  1  0.33938847  0.44053754  0.59636694  1
  Ni  Ni257  1  0.33938847  0.55946244  0.59636694  1
  Ni  Ni258  1  0.59636694  0.44053754  0.33938847  1
  Ni  Ni259  1  0.66061155  0.55946244  0.40363309  1
  Ni  Ni260  1  0.66061155  0.44053754  0.40363309  1
  Ni  Ni261  1  0.40363309  0.44053754  0.66061155  1
  Ni  Ni262  1  0.40363309  0.55946244  0.66061155  1
  Ni  Ni263  1  0.66061155  0.44053754  0.59636694  1
  Ni  Ni264  1  0.66061155  0.55946244  0.59636694  1
  Ni  Ni265  1  0.59636694  0.44053754  0.66061155  1
  Ni  Ni266  1  0.59636694  0.55946244  0.66061155  1
  Ni  Ni267  1  0.56424462  0.32161264  0.43575539  1
  Ni  Ni268  1  0.56424462  0.67838734  0.43575539  1
  Ni  Ni269  1  0.56424462  0.32161264  0.56424462  1
  Ni  Ni270  1  0.43575539  0.32161264  0.43575539  1
  Ni  Ni271  1  0.43575539  0.32161264  0.56424462  1
  Ni  Ni272  1  0.56424462  0.67838734  0.56424462  1
  Ni  Ni273  1  0.43575539  0.67838734  0.43575539  1
  Ni  Ni274  1  0.43575539  0.67838734  0.56424462  1
  Ni  Ni275  1  0.69273385  0.44053754  0.50000000  1
  Ni  Ni276  1  0.69273385  0.55946244  0.50000000  1
  Ni  Ni277  1  0.50000000  0.55946244  0.30726615  1
  Ni  Ni278  1  0.50000000  0.44053754  0.30726615  1
  Ni  Ni279  1  0.30726615  0.44053754  0.50000000  1
  Ni  Ni280  1  0.50000000  0.44053754  0.69273385  1
  Ni  Ni281  1  0.30726615  0.55946244  0.50000000  1
  Ni  Ni282  1  0.50000000  0.55946244  0.69273385  1
  Ni  Ni283  1  0.46787770  0.61892489  0.33938847  1
  Ni  Ni284  1  0.46787770  0.38107509  0.33938847  1
  Ni  Ni285  1  0.33938847  0.38107509  0.46787770  1
  Ni  Ni286  1  0.33938847  0.61892489  0.46787770  1
  Ni  Ni287  1  0.53212232  0.61892489  0.33938847  1
  Ni  Ni288  1  0.53212232  0.38107509  0.33938847  1
  Ni  Ni289  1  0.33938847  0.38107509  0.53212232  1
  Ni  Ni290  1  0.33938847  0.61892489  0.53212232  1
  Ni  Ni291  1  0.66061155  0.61892489  0.46787770  1
  Ni  Ni292  1  0.66061155  0.38107509  0.46787770  1
  Ni  Ni293  1  0.46787770  0.38107509  0.66061155  1
  Ni  Ni294  1  0.46787770  0.61892489  0.66061155  1
  Ni  Ni295  1  0.66061155  0.38107509  0.53212232  1
  Ni  Ni296  1  0.66061155  0.61892489  0.53212232  1
  Ni  Ni297  1  0.53212232  0.61892489  0.66061155  1
  Ni  Ni298  1  0.53212232  0.38107509  0.66061155  1
  Ni  Ni299  1  0.69273385  0.49999999  0.43575539  1
  Ni  Ni300  1  0.69273385  0.49999999  0.56424462  1
  Ni  Ni301  1  0.56424462  0.49999999  0.30726615  1
  Ni  Ni302  1  0.30726615  0.49999999  0.56424462  1
  Ni  Ni303  1  0.30726615  0.49999999  0.43575539  1
  Ni  Ni304  1  0.43575539  0.49999999  0.30726615  1
  Ni  Ni305  1  0.56424462  0.49999999  0.69273385  1
  Ni  Ni306  1  0.43575539  0.49999999  0.69273385  1
  Ni  Ni307  1  0.46787770  0.32161264  0.40363309  1
  Ni  Ni308  1  0.40363309  0.32161264  0.46787770  1
  Ni  Ni309  1  0.46787770  0.67838734  0.40363309  1
  Ni  Ni310  1  0.40363309  0.67838734  0.46787770  1
  Ni  Ni311  1  0.53212232  0.32161264  0.40363309  1
  Ni  Ni312  1  0.53212232  0.67838734  0.40363309  1
  Ni  Ni313  1  0.40363309  0.32161264  0.53212232  1
  Ni  Ni314  1  0.40363309  0.67838734  0.53212232  1
  Ni  Ni315  1  0.46787770  0.32161264  0.59636694  1
  Ni  Ni316  1  0.59636694  0.32161264  0.46787770  1
  Ni  Ni317  1  0.46787770  0.67838734  0.59636694  1
  Ni  Ni318  1  0.59636694  0.67838734  0.46787770  1
  Ni  Ni319  1  0.53212232  0.32161264  0.59636694  1
  Ni  Ni320  1  0.53212232  0.67838734  0.59636694  1
  Ni  Ni321  1  0.59636694  0.32161264  0.53212232  1
  Ni  Ni322  1  0.59636694  0.67838734  0.53212232  1
  Ni  Ni323  1  0.69273385  0.55946244  0.43575539  1
  Ni  Ni324  1  0.69273385  0.44053754  0.43575539  1
  Ni  Ni325  1  0.69273385  0.55946244  0.56424462  1
  Ni  Ni326  1  0.69273385  0.44053754  0.56424462  1
  Ni  Ni327  1  0.56424462  0.55946244  0.30726615  1
  Ni  Ni328  1  0.56424462  0.44053754  0.30726615  1
  Ni  Ni329  1  0.43575539  0.44053754  0.30726615  1
  Ni  Ni330  1  0.43575539  0.55946244  0.30726615  1
  Ni  Ni331  1  0.56424462  0.55946244  0.69273385  1
  Ni  Ni332  1  0.56424462  0.44053754  0.69273385  1
  Ni  Ni333  1  0.43575539  0.44053754  0.69273385  1
  Ni  Ni334  1  0.30726615  0.44053754  0.56424462  1
  Ni  Ni335  1  0.30726615  0.44053754  0.43575539  1
  Ni  Ni336  1  0.43575539  0.55946244  0.69273385  1
  Ni  Ni337  1  0.30726615  0.55946244  0.56424462  1
  Ni  Ni338  1  0.30726615  0.55946244  0.43575539  1
  Ni  Ni339  1  0.37151077  0.38107509  0.62848924  1
  Ni  Ni340  1  0.62848924  0.38107509  0.62848924  1
  Ni  Ni341  1  0.62848924  0.61892489  0.37151077  1
  Ni  Ni342  1  0.62848924  0.61892489  0.62848924  1
  Ni  Ni343  1  0.37151077  0.61892489  0.62848924  1
  Ni  Ni344  1  0.62848924  0.38107509  0.37151077  1
  Ni  Ni345  1  0.37151077  0.38107509  0.37151077  1
  Ni  Ni346  1  0.37151077  0.61892489  0.37151077  1
  Ni  Ni347  1  0.50000000  0.32161264  0.62848924  1
  Ni  Ni348  1  0.50000000  0.67838734  0.62848924  1
  Ni  Ni349  1  0.62848924  0.32161264  0.50000000  1
  Ni  Ni350  1  0.50000000  0.32161264  0.37151077  1
  Ni  Ni351  1  0.37151077  0.32161264  0.50000000  1
  Ni  Ni352  1  0.50000000  0.67838734  0.37151077  1
  Ni  Ni353  1  0.62848924  0.67838734  0.50000000  1
  Ni  Ni354  1  0.37151077  0.67838734  0.50000000  1
  Ni  Ni355  1  0.40363309  0.38107509  0.33938847  1
  Ni  Ni356  1  0.33938847  0.38107509  0.40363309  1
  Ni  Ni357  1  0.40363309  0.61892489  0.33938847  1
  Ni  Ni358  1  0.33938847  0.61892489  0.40363309  1
  Ni  Ni359  1  0.59636694  0.61892489  0.33938847  1
  Ni  Ni360  1  0.59636694  0.38107509  0.33938847  1
  Ni  Ni361  1  0.33938847  0.38107509  0.59636694  1
  Ni  Ni362  1  0.33938847  0.61892489  0.59636694  1
  Ni  Ni363  1  0.66061155  0.61892489  0.40363309  1
  Ni  Ni364  1  0.66061155  0.38107509  0.40363309  1
  Ni  Ni365  1  0.40363309  0.38107509  0.66061155  1
  Ni  Ni366  1  0.40363309  0.61892489  0.66061155  1
  Ni  Ni367  1  0.66061155  0.61892489  0.59636694  1
  Ni  Ni368  1  0.66061155  0.38107509  0.59636694  1
  Ni  Ni369  1  0.59636694  0.61892489  0.66061155  1
  Ni  Ni370  1  0.59636694  0.38107509  0.66061155  1
  Ni  Ni371  1  0.40363309  0.32161264  0.40363309  1
  Ni  Ni372  1  0.40363309  0.67838734  0.40363309  1
  Ni  Ni373  1  0.40363309  0.32161264  0.59636694  1
  Ni  Ni374  1  0.59636694  0.67838734  0.40363309  1
  Ni  Ni375  1  0.59636694  0.32161264  0.40363309  1
  Ni  Ni376  1  0.40363309  0.67838734  0.59636694  1
  Ni  Ni377  1  0.59636694  0.32161264  0.59636694  1
  Ni  Ni378  1  0.59636694  0.67838734  0.59636694  1
  Ni  Ni379  1  0.69273385  0.61892489  0.50000000  1
  Ni  Ni380  1  0.69273385  0.38107509  0.50000000  1
  Ni  Ni381  1  0.50000000  0.61892489  0.30726615  1
  Ni  Ni382  1  0.50000000  0.38107509  0.30726615  1
  Ni  Ni383  1  0.30726615  0.61892489  0.50000000  1
  Ni  Ni384  1  0.50000000  0.61892489  0.69273385  1
  Ni  Ni385  1  0.30726615  0.38107509  0.50000000  1
  Ni  Ni386  1  0.50000000  0.38107509  0.69273385  1
  Ni  Ni387  1  0.33938847  0.49999999  0.33938847  1
  Ni  Ni388  1  0.46787770  0.49999999  0.27514385  1
  Ni  Ni389  1  0.27514385  0.49999999  0.46787770  1
  Ni  Ni390  1  0.53212232  0.49999999  0.27514385  1
  Ni  Ni391  1  0.27514385  0.49999999  0.53212232  1
  Ni  Ni392  1  0.66061155  0.49999999  0.33938847  1
  Ni  Ni393  1  0.33938847  0.49999999  0.66061155  1
  Ni  Ni394  1  0.46787770  0.49999999  0.72485617  1
  Ni  Ni395  1  0.72485617  0.49999999  0.46787770  1
  Ni  Ni396  1  0.53212232  0.49999999  0.72485617  1
  Ni  Ni397  1  0.72485617  0.49999999  0.53212232  1
  Ni  Ni398  1  0.66061155  0.49999999  0.66061155  1
  Ni  Ni399  1  0.56424462  0.32161264  0.62848924  1
  Ni  Ni400  1  0.56424462  0.67838734  0.37151077  1
  Ni  Ni401  1  0.43575539  0.32161264  0.62848924  1
  Ni  Ni402  1  0.56424462  0.32161264  0.37151077  1
  Ni  Ni403  1  0.56424462  0.67838734  0.62848924  1
  Ni  Ni404  1  0.43575539  0.32161264  0.37151077  1
  Ni  Ni405  1  0.62848924  0.32161264  0.56424462  1
  Ni  Ni406  1  0.37151077  0.32161264  0.43575539  1
  Ni  Ni407  1  0.37151077  0.32161264  0.56424462  1
  Ni  Ni408  1  0.43575539  0.67838734  0.62848924  1
  Ni  Ni409  1  0.62848924  0.32161264  0.43575539  1
  Ni  Ni410  1  0.62848924  0.67838734  0.43575539  1
  Ni  Ni411  1  0.43575539  0.67838734  0.37151077  1
  Ni  Ni412  1  0.37151077  0.67838734  0.56424462  1
  Ni  Ni413  1  0.62848924  0.67838734  0.56424462  1
  Ni  Ni414  1  0.37151077  0.67838734  0.43575539  1
  Ni  Ni415  1  0.69273385  0.49999999  0.62848924  1
  Ni  Ni416  1  0.69273385  0.49999999  0.37151077  1
  Ni  Ni417  1  0.62848924  0.49999999  0.30726615  1
  Ni  Ni418  1  0.30726615  0.49999999  0.62848924  1
  Ni  Ni419  1  0.30726615  0.49999999  0.37151077  1
  Ni  Ni420  1  0.37151077  0.49999999  0.30726615  1
  Ni  Ni421  1  0.62848924  0.49999999  0.69273385  1
  Ni  Ni422  1  0.37151077  0.49999999  0.69273385  1
  Ni  Ni423  1  0.33938847  0.44053754  0.33938847  1
  Ni  Ni424  1  0.33938847  0.55946244  0.33938847  1
  Ni  Ni425  1  0.46787770  0.55946244  0.27514385  1
  Ni  Ni426  1  0.46787770  0.44053754  0.27514385  1
  Ni  Ni427  1  0.27514385  0.55946244  0.46787770  1
  Ni  Ni428  1  0.27514385  0.44053754  0.46787770  1
  Ni  Ni429  1  0.53212232  0.55946244  0.27514385  1
  Ni  Ni430  1  0.53212232  0.44053754  0.27514385  1
  Ni  Ni431  1  0.27514385  0.55946244  0.53212232  1
  Ni  Ni432  1  0.27514385  0.44053754  0.53212232  1
  Ni  Ni433  1  0.66061155  0.55946244  0.33938847  1
  Ni  Ni434  1  0.66061155  0.44053754  0.33938847  1
  Ni  Ni435  1  0.33938847  0.44053754  0.66061155  1
  Ni  Ni436  1  0.33938847  0.55946244  0.66061155  1
  Ni  Ni437  1  0.46787770  0.55946244  0.72485617  1
  Ni  Ni438  1  0.46787770  0.44053754  0.72485617  1
  Ni  Ni439  1  0.72485617  0.44053754  0.46787770  1
  Ni  Ni440  1  0.72485617  0.55946244  0.46787770  1
  Ni  Ni441  1  0.53212232  0.55946244  0.72485617  1
  Ni  Ni442  1  0.53212232  0.44053754  0.72485617  1
  Ni  Ni443  1  0.72485617  0.44053754  0.53212232  1
  Ni  Ni444  1  0.72485617  0.55946244  0.53212232  1
  Ni  Ni445  1  0.66061155  0.55946244  0.66061155  1
  Ni  Ni446  1  0.66061155  0.44053754  0.66061155  1
  Ni  Ni447  1  0.69273385  0.61892489  0.43575539  1
  Ni  Ni448  1  0.69273385  0.61892489  0.56424462  1
  Ni  Ni449  1  0.69273385  0.38107509  0.43575539  1
  Ni  Ni450  1  0.56424462  0.61892489  0.30726615  1
  Ni  Ni451  1  0.69273385  0.38107509  0.56424462  1
  Ni  Ni452  1  0.56424462  0.61892489  0.69273385  1
  Ni  Ni453  1  0.56424462  0.38107509  0.30726615  1
  Ni  Ni454  1  0.43575539  0.38107509  0.30726615  1
  Ni  Ni455  1  0.56424462  0.38107509  0.69273385  1
  Ni  Ni456  1  0.43575539  0.61892489  0.30726615  1
  Ni  Ni457  1  0.43575539  0.38107509  0.69273385  1
  Ni  Ni458  1  0.30726615  0.38107509  0.43575539  1
  Ni  Ni459  1  0.30726615  0.61892489  0.56424462  1
  Ni  Ni460  1  0.30726615  0.38107509  0.56424462  1
  Ni  Ni461  1  0.30726615  0.61892489  0.43575539  1
  Ni  Ni462  1  0.43575539  0.61892489  0.69273385  1
  Ni  Ni463  1  0.50000000  0.73784979  0.50000000  1
  Ni  Ni464  1  0.50000000  0.26215019  0.50000000  1
  Ni  Ni465  1  0.69273385  0.55946244  0.37151077  1
  Ni  Ni466  1  0.69273385  0.55946244  0.62848924  1
  Ni  Ni467  1  0.69273385  0.44053754  0.62848924  1
  Ni  Ni468  1  0.69273385  0.44053754  0.37151077  1
  Ni  Ni469  1  0.62848924  0.44053754  0.30726615  1
  Ni  Ni470  1  0.62848924  0.55946244  0.30726615  1
  Ni  Ni471  1  0.30726615  0.44053754  0.62848924  1
  Ni  Ni472  1  0.62848924  0.55946244  0.69273385  1
  Ni  Ni473  1  0.37151077  0.44053754  0.30726615  1
  Ni  Ni474  1  0.30726615  0.55946244  0.62848924  1
  Ni  Ni475  1  0.37151077  0.55946244  0.30726615  1
  Ni  Ni476  1  0.62848924  0.44053754  0.69273385  1
  Ni  Ni477  1  0.37151077  0.44053754  0.69273385  1
  Ni  Ni478  1  0.30726615  0.44053754  0.37151077  1
  Ni  Ni479  1  0.30726615  0.55946244  0.37151077  1
  Ni  Ni480  1  0.37151077  0.55946244  0.69273385  1
  Ni  Ni481  1  0.46787770  0.73784979  0.46787770  1
  Ni  Ni482  1  0.46787770  0.26215019  0.46787770  1
  Ni  Ni483  1  0.53212232  0.73784979  0.46787770  1
  Ni  Ni484  1  0.53212232  0.26215019  0.46787770  1
  Ni  Ni485  1  0.46787770  0.26215019  0.53212232  1
  Ni  Ni486  1  0.46787770  0.73784979  0.53212232  1
  Ni  Ni487  1  0.53212232  0.73784979  0.53212232  1
  Ni  Ni488  1  0.53212232  0.26215019  0.53212232  1
  Ni  Ni489  1  0.33938847  0.32161264  0.46787770  1
  Ni  Ni490  1  0.46787770  0.67838734  0.33938847  1
  Ni  Ni491  1  0.46787770  0.32161264  0.33938847  1
  Ni  Ni492  1  0.33938847  0.67838734  0.46787770  1
  Ni  Ni493  1  0.53212232  0.67838734  0.33938847  1
  Ni  Ni494  1  0.53212232  0.32161264  0.33938847  1
  Ni  Ni495  1  0.33938847  0.32161264  0.53212232  1
  Ni  Ni496  1  0.33938847  0.67838734  0.53212232  1
  Ni  Ni497  1  0.66061155  0.32161264  0.46787770  1
  Ni  Ni498  1  0.66061155  0.67838734  0.46787770  1
  Ni  Ni499  1  0.46787770  0.32161264  0.66061155  1
  Ni  Ni500  1  0.46787770  0.67838734  0.66061155  1
  Ni  Ni501  1  0.66061155  0.32161264  0.53212232  1
  Ni  Ni502  1  0.66061155  0.67838734  0.53212232  1
  Ni  Ni503  1  0.53212232  0.67838734  0.66061155  1
  Ni  Ni504  1  0.53212232  0.32161264  0.66061155  1
  Ni  Ni505  1  0.40363309  0.49999999  0.27514385  1
  Ni  Ni506  1  0.27514385  0.49999999  0.40363309  1
  Ni  Ni507  1  0.59636694  0.49999999  0.27514385  1
  Ni  Ni508  1  0.27514385  0.49999999  0.59636694  1
  Ni  Ni509  1  0.40363309  0.49999999  0.72485617  1
  Ni  Ni510  1  0.72485617  0.49999999  0.40363309  1
  Ni  Ni511  1  0.59636694  0.49999999  0.72485617  1
  Ni  Ni512  1  0.72485617  0.49999999  0.59636694  1
  Ni  Ni513  1  0.56424462  0.26215019  0.50000000  1
  Ni  Ni514  1  0.50000000  0.73784979  0.43575539  1
  Ni  Ni515  1  0.56424462  0.73784979  0.50000000  1
  Ni  Ni516  1  0.50000000  0.26215019  0.43575539  1
  Ni  Ni517  1  0.50000000  0.26215019  0.56424462  1
  Ni  Ni518  1  0.43575539  0.26215019  0.50000000  1
  Ni  Ni519  1  0.50000000  0.73784979  0.56424462  1
  Ni  Ni520  1  0.43575539  0.73784979  0.50000000  1
  Ni  Ni521  1  0.40363309  0.44053754  0.27514385  1
  Ni  Ni522  1  0.27514385  0.55946244  0.40363309  1
  Ni  Ni523  1  0.40363309  0.55946244  0.27514385  1
  Ni  Ni524  1  0.27514385  0.44053754  0.40363309  1
  Ni  Ni525  1  0.27514385  0.55946244  0.59636694  1
  Ni  Ni526  1  0.59636694  0.55946244  0.27514385  1
  Ni  Ni527  1  0.59636694  0.44053754  0.27514385  1
  Ni  Ni528  1  0.27514385  0.44053754  0.59636694  1
  Ni  Ni529  1  0.40363309  0.44053754  0.72485617  1
  Ni  Ni530  1  0.40363309  0.55946244  0.72485617  1
  Ni  Ni531  1  0.72485617  0.44053754  0.40363309  1
  Ni  Ni532  1  0.72485617  0.55946244  0.40363309  1
  Ni  Ni533  1  0.59636694  0.44053754  0.72485617  1
  Ni  Ni534  1  0.59636694  0.55946244  0.72485617  1
  Ni  Ni535  1  0.72485617  0.55946244  0.59636694  1
  Ni  Ni536  1  0.72485617  0.44053754  0.59636694  1
  Ni  Ni537  1  0.56424462  0.73784979  0.43575539  1
  Ni  Ni538  1  0.56424462  0.73784979  0.56424462  1
  Ni  Ni539  1  0.56424462  0.26215019  0.56424462  1
  Ni  Ni540  1  0.56424462  0.26215019  0.43575539  1
  Ni  Ni541  1  0.43575539  0.73784979  0.43575539  1
  Ni  Ni542  1  0.43575539  0.26215019  0.56424462  1
  Ni  Ni543  1  0.43575539  0.26215019  0.43575539  1
  Ni  Ni544  1  0.43575539  0.73784979  0.56424462  1
  Ni  Ni545  1  0.62848924  0.32161264  0.62848924  1
  Ni  Ni546  1  0.37151077  0.32161264  0.62848924  1
  Ni  Ni547  1  0.62848924  0.67838734  0.37151077  1
  Ni  Ni548  1  0.62848924  0.32161264  0.37151077  1
  Ni  Ni549  1  0.37151077  0.32161264  0.37151077  1
  Ni  Ni550  1  0.37151077  0.67838734  0.62848924  1
  Ni  Ni551  1  0.37151077  0.67838734  0.37151077  1
  Ni  Ni552  1  0.62848924  0.67838734  0.62848924  1
  Ni  Ni553  1  0.33938847  0.38107509  0.33938847  1
  Ni  Ni554  1  0.33938847  0.61892489  0.33938847  1
  Ni  Ni555  1  0.46787770  0.61892489  0.27514385  1
  Ni  Ni556  1  0.27514385  0.61892489  0.46787770  1
  Ni  Ni557  1  0.46787770  0.38107509  0.27514385  1
  Ni  Ni558  1  0.27514385  0.38107509  0.46787770  1
  Ni  Ni559  1  0.53212232  0.61892489  0.27514385  1
  Ni  Ni560  1  0.53212232  0.38107509  0.27514385  1
  Ni  Ni561  1  0.27514385  0.61892489  0.53212232  1
  Ni  Ni562  1  0.27514385  0.38107509  0.53212232  1
  Ni  Ni563  1  0.66061155  0.61892489  0.33938847  1
  Ni  Ni564  1  0.66061155  0.38107509  0.33938847  1
  Ni  Ni565  1  0.33938847  0.38107509  0.66061155  1
  Ni  Ni566  1  0.33938847  0.61892489  0.66061155  1
  Ni  Ni567  1  0.46787770  0.38107509  0.72485617  1
  Ni  Ni568  1  0.46787770  0.61892489  0.72485617  1
  Ni  Ni569  1  0.72485617  0.38107509  0.46787770  1
  Ni  Ni570  1  0.72485617  0.61892489  0.46787770  1
  Ni  Ni571  1  0.53212232  0.61892489  0.72485617  1
  Ni  Ni572  1  0.53212232  0.38107509  0.72485617  1
  Ni  Ni573  1  0.72485617  0.61892489  0.53212232  1
  Ni  Ni574  1  0.72485617  0.38107509  0.53212232  1
  Ni  Ni575  1  0.66061155  0.61892489  0.66061155  1
  Ni  Ni576  1  0.66061155  0.38107509  0.66061155  1
  Ni  Ni577  1  0.50000000  0.49999999  0.75697847  1
  Ni  Ni578  1  0.50000000  0.49999999  0.24302154  1
  Ni  Ni579  1  0.75697847  0.49999999  0.50000000  1
  Ni  Ni580  1  0.24302154  0.49999999  0.50000000  1
  Ni  Ni581  1  0.46787770  0.73784979  0.40363309  1
  Ni  Ni582  1  0.46787770  0.26215019  0.40363309  1
  Ni  Ni583  1  0.40363309  0.26215019  0.46787770  1
  Ni  Ni584  1  0.40363309  0.73784979  0.46787770  1
  Ni  Ni585  1  0.53212232  0.73784979  0.40363309  1
  Ni  Ni586  1  0.53212232  0.26215019  0.40363309  1
  Ni  Ni587  1  0.40363309  0.26215019  0.53212232  1
  Ni  Ni588  1  0.40363309  0.73784979  0.53212232  1
  Ni  Ni589  1  0.46787770  0.73784979  0.59636694  1
  Ni  Ni590  1  0.46787770  0.26215019  0.59636694  1
  Ni  Ni591  1  0.59636694  0.73784979  0.46787770  1
  Ni  Ni592  1  0.59636694  0.26215019  0.46787770  1
  Ni  Ni593  1  0.53212232  0.73784979  0.59636694  1
  Ni  Ni594  1  0.53212232  0.26215019  0.59636694  1
  Ni  Ni595  1  0.59636694  0.73784979  0.53212232  1
  Ni  Ni596  1  0.59636694  0.26215019  0.53212232  1
  Ni  Ni597  1  0.33938847  0.32161264  0.40363309  1
  Ni  Ni598  1  0.40363309  0.32161264  0.33938847  1
  Ni  Ni599  1  0.40363309  0.67838734  0.33938847  1
  Ni  Ni600  1  0.33938847  0.67838734  0.40363309  1
  Ni  Ni601  1  0.33938847  0.32161264  0.59636694  1
  Ni  Ni602  1  0.59636694  0.67838734  0.33938847  1
  Ni  Ni603  1  0.59636694  0.32161264  0.33938847  1
  Ni  Ni604  1  0.33938847  0.67838734  0.59636694  1
  Ni  Ni605  1  0.66061155  0.32161264  0.40363309  1
  Ni  Ni606  1  0.66061155  0.67838734  0.40363309  1
  Ni  Ni607  1  0.40363309  0.32161264  0.66061155  1
  Ni  Ni608  1  0.40363309  0.67838734  0.66061155  1
  Ni  Ni609  1  0.66061155  0.32161264  0.59636694  1
  Ni  Ni610  1  0.66061155  0.67838734  0.59636694  1
  Ni  Ni611  1  0.59636694  0.32161264  0.66061155  1
  Ni  Ni612  1  0.59636694  0.67838734  0.66061155  1
  Ni  Ni613  1  0.69273385  0.61892489  0.37151077  1
  Ni  Ni614  1  0.69273385  0.38107509  0.62848924  1
  Ni  Ni615  1  0.69273385  0.38107509  0.37151077  1
  Ni  Ni616  1  0.69273385  0.61892489  0.62848924  1
  Ni  Ni617  1  0.62848924  0.61892489  0.30726615  1
  Ni  Ni618  1  0.62848924  0.61892489  0.69273385  1
  Ni  Ni619  1  0.37151077  0.38107509  0.30726615  1
  Ni  Ni620  1  0.30726615  0.61892489  0.62848924  1
  Ni  Ni621  1  0.30726615  0.38107509  0.62848924  1
  Ni  Ni622  1  0.62848924  0.38107509  0.30726615  1
  Ni  Ni623  1  0.37151077  0.61892489  0.30726615  1
  Ni  Ni624  1  0.37151077  0.38107509  0.69273385  1
  Ni  Ni625  1  0.62848924  0.38107509  0.69273385  1
  Ni  Ni626  1  0.30726615  0.38107509  0.37151077  1
  Ni  Ni627  1  0.30726615  0.61892489  0.37151077  1
  Ni  Ni628  1  0.37151077  0.61892489  0.69273385  1
  Ni  Ni629  1  0.69273385  0.32161264  0.50000000  1
  Ni  Ni630  1  0.69273385  0.67838734  0.50000000  1
  Ni  Ni631  1  0.50000000  0.67838734  0.30726615  1
  Ni  Ni632  1  0.50000000  0.67838734  0.69273385  1
  Ni  Ni633  1  0.30726615  0.32161264  0.50000000  1
  Ni  Ni634  1  0.50000000  0.32161264  0.30726615  1
  Ni  Ni635  1  0.50000000  0.32161264  0.69273385  1
  Ni  Ni636  1  0.30726615  0.67838734  0.50000000  1
  Ni  Ni637  1  0.50000000  0.44053754  0.75697847  1
  Ni  Ni638  1  0.50000000  0.55946244  0.75697847  1
  Ni  Ni639  1  0.50000000  0.55946244  0.24302154  1
  Ni  Ni640  1  0.50000000  0.44053754  0.24302154  1
  Ni  Ni641  1  0.75697847  0.44053754  0.50000000  1
  Ni  Ni642  1  0.75697847  0.55946244  0.50000000  1
  Ni  Ni643  1  0.24302154  0.44053754  0.50000000  1
  Ni  Ni644  1  0.24302154  0.55946244  0.50000000  1
  Ni  Ni645  1  0.56424462  0.49999999  0.75697847  1
  Ni  Ni646  1  0.43575539  0.49999999  0.75697847  1
  Ni  Ni647  1  0.56424462  0.49999999  0.24302154  1
  Ni  Ni648  1  0.75697847  0.49999999  0.43575539  1
  Ni  Ni649  1  0.43575539  0.49999999  0.24302154  1
  Ni  Ni650  1  0.75697847  0.49999999  0.56424462  1
  Ni  Ni651  1  0.24302154  0.49999999  0.43575539  1
  Ni  Ni652  1  0.24302154  0.49999999  0.56424462  1
  Ni  Ni653  1  0.50000000  0.73784979  0.37151077  1
  Ni  Ni654  1  0.50000000  0.26215019  0.62848924  1
  Ni  Ni655  1  0.50000000  0.73784979  0.62848924  1
  Ni  Ni656  1  0.62848924  0.73784979  0.50000000  1
  Ni  Ni657  1  0.37151077  0.73784979  0.50000000  1
  Ni  Ni658  1  0.37151077  0.26215019  0.50000000  1
  Ni  Ni659  1  0.50000000  0.26215019  0.37151077  1
  Ni  Ni660  1  0.62848924  0.26215019  0.50000000  1
  Ni  Ni661  1  0.69273385  0.32161264  0.56424462  1
  Ni  Ni662  1  0.69273385  0.32161264  0.43575539  1
  Ni  Ni663  1  0.69273385  0.67838734  0.43575539  1
  Ni  Ni664  1  0.56424462  0.67838734  0.30726615  1
  Ni  Ni665  1  0.69273385  0.67838734  0.56424462  1
  Ni  Ni666  1  0.56424462  0.67838734  0.69273385  1
  Ni  Ni667  1  0.30726615  0.32161264  0.43575539  1
  Ni  Ni668  1  0.56424462  0.32161264  0.30726615  1
  Ni  Ni669  1  0.56424462  0.32161264  0.69273385  1
  Ni  Ni670  1  0.30726615  0.32161264  0.56424462  1
  Ni  Ni671  1  0.43575539  0.32161264  0.30726615  1
  Ni  Ni672  1  0.43575539  0.67838734  0.30726615  1
  Ni  Ni673  1  0.43575539  0.32161264  0.69273385  1
  Ni  Ni674  1  0.30726615  0.67838734  0.43575539  1
  Ni  Ni675  1  0.43575539  0.67838734  0.69273385  1
  Ni  Ni676  1  0.30726615  0.67838734  0.56424462  1
  Ni  Ni677  1  0.56424462  0.44053754  0.75697847  1
  Ni  Ni678  1  0.56424462  0.55946244  0.24302154  1
  Ni  Ni679  1  0.43575539  0.44053754  0.75697847  1
  Ni  Ni680  1  0.43575539  0.55946244  0.75697847  1
  Ni  Ni681  1  0.56424462  0.44053754  0.24302154  1
  Ni  Ni682  1  0.43575539  0.55946244  0.24302154  1
  Ni  Ni683  1  0.75697847  0.55946244  0.43575539  1
  Ni  Ni684  1  0.75697847  0.44053754  0.43575539  1
  Ni  Ni685  1  0.43575539  0.44053754  0.24302154  1
  Ni  Ni686  1  0.56424462  0.55946244  0.75697847  1
  Ni  Ni687  1  0.75697847  0.44053754  0.56424462  1
  Ni  Ni688  1  0.75697847  0.55946244  0.56424462  1
  Ni  Ni689  1  0.24302154  0.44053754  0.43575539  1
  Ni  Ni690  1  0.24302154  0.55946244  0.56424462  1
  Ni  Ni691  1  0.24302154  0.55946244  0.43575539  1
  Ni  Ni692  1  0.24302154  0.44053754  0.56424462  1
  Ni  Ni693  1  0.27514385  0.61892489  0.40363309  1
  Ni  Ni694  1  0.40363309  0.61892489  0.27514385  1
  Ni  Ni695  1  0.40363309  0.38107509  0.27514385  1
  Ni  Ni696  1  0.27514385  0.38107509  0.40363309  1
  Ni  Ni697  1  0.27514385  0.38107509  0.59636694  1
  Ni  Ni698  1  0.27514385  0.61892489  0.59636694  1
  Ni  Ni699  1  0.59636694  0.61892489  0.27514385  1
  Ni  Ni700  1  0.59636694  0.38107509  0.27514385  1
  Ni  Ni701  1  0.40363309  0.38107509  0.72485617  1
  Ni  Ni702  1  0.40363309  0.61892489  0.72485617  1
  Ni  Ni703  1  0.72485617  0.61892489  0.40363309  1
  Ni  Ni704  1  0.72485617  0.38107509  0.40363309  1
  Ni  Ni705  1  0.59636694  0.38107509  0.72485617  1
  Ni  Ni706  1  0.72485617  0.61892489  0.59636694  1
  Ni  Ni707  1  0.59636694  0.61892489  0.72485617  1
  Ni  Ni708  1  0.72485617  0.38107509  0.59636694  1
  Ni  Ni709  1  0.69273385  0.49999999  0.30726615  1
  Ni  Ni710  1  0.69273385  0.49999999  0.69273385  1
  Ni  Ni711  1  0.30726615  0.49999999  0.69273385  1
  Ni  Ni712  1  0.30726615  0.49999999  0.30726615  1
  Ni  Ni713  1  0.40363309  0.73784979  0.40363309  1
  Ni  Ni714  1  0.40363309  0.26215019  0.40363309  1
  Ni  Ni715  1  0.59636694  0.73784979  0.40363309  1
  Ni  Ni716  1  0.40363309  0.26215019  0.59636694  1
  Ni  Ni717  1  0.40363309  0.73784979  0.59636694  1
  Ni  Ni718  1  0.59636694  0.26215019  0.40363309  1
  Ni  Ni719  1  0.59636694  0.73784979  0.59636694  1
  Ni  Ni720  1  0.59636694  0.26215019  0.59636694  1
  Ni  Ni721  1  0.33938847  0.49999999  0.27514385  1
  Ni  Ni722  1  0.27514385  0.49999999  0.33938847  1
  Ni  Ni723  1  0.66061155  0.49999999  0.27514385  1
  Ni  Ni724  1  0.27514385  0.49999999  0.66061155  1
  Ni  Ni725  1  0.33938847  0.49999999  0.72485617  1
  Ni  Ni726  1  0.72485617  0.49999999  0.33938847  1
  Ni  Ni727  1  0.66061155  0.49999999  0.72485617  1
  Ni  Ni728  1  0.72485617  0.49999999  0.66061155  1
  Ni  Ni729  1  0.56424462  0.73784979  0.37151077  1
  Ni  Ni730  1  0.56424462  0.26215019  0.62848924  1
  Ni  Ni731  1  0.56424462  0.73784979  0.62848924  1
  Ni  Ni732  1  0.43575539  0.73784979  0.37151077  1
  Ni  Ni733  1  0.62848924  0.73784979  0.43575539  1
  Ni  Ni734  1  0.56424462  0.26215019  0.37151077  1
  Ni  Ni735  1  0.43575539  0.26215019  0.62848924  1
  Ni  Ni736  1  0.43575539  0.73784979  0.62848924  1
  Ni  Ni737  1  0.62848924  0.73784979  0.56424462  1
  Ni  Ni738  1  0.37151077  0.73784979  0.43575539  1
  Ni  Ni739  1  0.37151077  0.26215019  0.43575539  1
  Ni  Ni740  1  0.62848924  0.26215019  0.56424462  1
  Ni  Ni741  1  0.62848924  0.26215019  0.43575539  1
  Ni  Ni742  1  0.37151077  0.73784979  0.56424462  1
  Ni  Ni743  1  0.37151077  0.26215019  0.56424462  1
  Ni  Ni744  1  0.43575539  0.26215019  0.37151077  1
  Ni  Ni745  1  0.69273385  0.55946244  0.30726615  1
  Ni  Ni746  1  0.69273385  0.44053754  0.30726615  1
  Ni  Ni747  1  0.69273385  0.55946244  0.69273385  1
  Ni  Ni748  1  0.69273385  0.44053754  0.69273385  1
  Ni  Ni749  1  0.30726615  0.55946244  0.30726615  1
  Ni  Ni750  1  0.30726615  0.44053754  0.69273385  1
  Ni  Ni751  1  0.30726615  0.44053754  0.30726615  1
  Ni  Ni752  1  0.30726615  0.55946244  0.69273385  1
  Ni  Ni753  1  0.33938847  0.44053754  0.27514385  1
  Ni  Ni754  1  0.27514385  0.44053754  0.33938847  1
  Ni  Ni755  1  0.33938847  0.55946244  0.27514385  1
  Ni  Ni756  1  0.27514385  0.55946244  0.33938847  1
  Ni  Ni757  1  0.66061155  0.44053754  0.27514385  1
  Ni  Ni758  1  0.66061155  0.55946244  0.27514385  1
  Ni  Ni759  1  0.27514385  0.55946244  0.66061155  1
  Ni  Ni760  1  0.27514385  0.44053754  0.66061155  1
  Ni  Ni761  1  0.33938847  0.44053754  0.72485617  1
  Ni  Ni762  1  0.72485617  0.44053754  0.33938847  1
  Ni  Ni763  1  0.72485617  0.55946244  0.33938847  1
  Ni  Ni764  1  0.33938847  0.55946244  0.72485617  1
  Ni  Ni765  1  0.66061155  0.44053754  0.72485617  1
  Ni  Ni766  1  0.66061155  0.55946244  0.72485617  1
  Ni  Ni767  1  0.72485617  0.44053754  0.66061155  1
  Ni  Ni768  1  0.72485617  0.55946244  0.66061155  1
  Ni  Ni769  1  0.50000000  0.38107509  0.75697847  1
  Ni  Ni770  1  0.50000000  0.61892489  0.24302154  1
  Ni  Ni771  1  0.50000000  0.38107509  0.24302154  1
  Ni  Ni772  1  0.75697847  0.61892489  0.50000000  1
  Ni  Ni773  1  0.50000000  0.61892489  0.75697847  1
  Ni  Ni774  1  0.75697847  0.38107509  0.50000000  1
  Ni  Ni775  1  0.24302154  0.61892489  0.50000000  1
  Ni  Ni776  1  0.24302154  0.38107509  0.50000000  1
  Ni  Ni777  1  0.37151077  0.49999999  0.75697847  1
  Ni  Ni778  1  0.75697847  0.49999999  0.37151077  1
  Ni  Ni779  1  0.62848924  0.49999999  0.24302154  1
  Ni  Ni780  1  0.75697847  0.49999999  0.62848924  1
  Ni  Ni781  1  0.37151077  0.49999999  0.24302154  1
  Ni  Ni782  1  0.62848924  0.49999999  0.75697847  1
  Ni  Ni783  1  0.24302154  0.49999999  0.62848924  1
  Ni  Ni784  1  0.24302154  0.49999999  0.37151077  1
  Ni  Ni785  1  0.46787770  0.73784979  0.33938847  1
  Ni  Ni786  1  0.33938847  0.73784979  0.46787770  1
  Ni  Ni787  1  0.46787770  0.26215019  0.33938847  1
  Ni  Ni788  1  0.33938847  0.26215019  0.46787770  1
  Ni  Ni789  1  0.53212232  0.73784979  0.33938847  1
  Ni  Ni790  1  0.53212232  0.26215019  0.33938847  1
  Ni  Ni791  1  0.33938847  0.26215019  0.53212232  1
  Ni  Ni792  1  0.33938847  0.73784979  0.53212232  1
  Ni  Ni793  1  0.66061155  0.73784979  0.46787770  1
  Ni  Ni794  1  0.66061155  0.26215019  0.46787770  1
  Ni  Ni795  1  0.46787770  0.26215019  0.66061155  1
  Ni  Ni796  1  0.46787770  0.73784979  0.66061155  1
  Ni  Ni797  1  0.66061155  0.26215019  0.53212232  1
  Ni  Ni798  1  0.66061155  0.73784979  0.53212232  1
  Ni  Ni799  1  0.53212232  0.73784979  0.66061155  1
  Ni  Ni800  1  0.53212232  0.26215019  0.66061155  1
  Ni  Ni801  1  0.33938847  0.32161264  0.33938847  1
  Ni  Ni802  1  0.33938847  0.67838734  0.33938847  1
  Ni  Ni803  1  0.27514385  0.32161264  0.46787770  1
  Ni  Ni804  1  0.46787770  0.67838734  0.27514385  1
  Ni  Ni805  1  0.46787770  0.32161264  0.27514385  1
  Ni  Ni806  1  0.27514385  0.67838734  0.46787770  1
  Ni  Ni807  1  0.53212232  0.67838734  0.27514385  1
  Ni  Ni808  1  0.53212232  0.32161264  0.27514385  1
  Ni  Ni809  1  0.27514385  0.32161264  0.53212232  1
  Ni  Ni810  1  0.27514385  0.67838734  0.53212232  1
  Ni  Ni811  1  0.66061155  0.67838734  0.33938847  1
  Ni  Ni812  1  0.66061155  0.32161264  0.33938847  1
  Ni  Ni813  1  0.33938847  0.67838734  0.66061155  1
  Ni  Ni814  1  0.33938847  0.32161264  0.66061155  1
  Ni  Ni815  1  0.46787770  0.32161264  0.72485617  1
  Ni  Ni816  1  0.46787770  0.67838734  0.72485617  1
  Ni  Ni817  1  0.72485617  0.67838734  0.46787770  1
  Ni  Ni818  1  0.72485617  0.32161264  0.46787770  1
  Ni  Ni819  1  0.53212232  0.32161264  0.72485617  1
  Ni  Ni820  1  0.53212232  0.67838734  0.72485617  1
  Ni  Ni821  1  0.72485617  0.32161264  0.53212232  1
  Ni  Ni822  1  0.72485617  0.67838734  0.53212232  1
  Ni  Ni823  1  0.66061155  0.67838734  0.66061155  1
  Ni  Ni824  1  0.66061155  0.32161264  0.66061155  1
  Ni  Ni825  1  0.56424462  0.38107509  0.75697847  1
  Ni  Ni826  1  0.56424462  0.61892489  0.24302154  1
  Ni  Ni827  1  0.43575539  0.61892489  0.75697847  1
  Ni  Ni828  1  0.43575539  0.38107509  0.75697847  1
  Ni  Ni829  1  0.43575539  0.61892489  0.24302154  1
  Ni  Ni830  1  0.43575539  0.38107509  0.24302154  1
  Ni  Ni831  1  0.56424462  0.38107509  0.24302154  1
  Ni  Ni832  1  0.56424462  0.61892489  0.75697847  1
  Ni  Ni833  1  0.75697847  0.61892489  0.56424462  1
  Ni  Ni834  1  0.75697847  0.61892489  0.43575539  1
  Ni  Ni835  1  0.75697847  0.38107509  0.43575539  1
  Ni  Ni836  1  0.24302154  0.61892489  0.56424462  1
  Ni  Ni837  1  0.24302154  0.61892489  0.43575539  1
  Ni  Ni838  1  0.24302154  0.38107509  0.43575539  1
  Ni  Ni839  1  0.75697847  0.38107509  0.56424462  1
  Ni  Ni840  1  0.24302154  0.38107509  0.56424462  1
  Ni  Ni841  1  0.46787770  0.49999999  0.21089924  1
  Ni  Ni842  1  0.21089924  0.49999999  0.46787770  1
  Ni  Ni843  1  0.53212232  0.49999999  0.21089924  1
  Ni  Ni844  1  0.21089924  0.49999999  0.53212232  1
  Ni  Ni845  1  0.78910079  0.49999999  0.46787770  1
  Ni  Ni846  1  0.46787770  0.49999999  0.78910079  1
  Ni  Ni847  1  0.78910079  0.49999999  0.53212232  1
  Ni  Ni848  1  0.53212232  0.49999999  0.78910079  1
  Ni  Ni849  1  0.69273385  0.67838734  0.37151077  1
  Ni  Ni850  1  0.69273385  0.32161264  0.62848924  1
  Ni  Ni851  1  0.69273385  0.32161264  0.37151077  1
  Ni  Ni852  1  0.69273385  0.67838734  0.62848924  1
  Ni  Ni853  1  0.62848924  0.67838734  0.30726615  1
  Ni  Ni854  1  0.30726615  0.32161264  0.62848924  1
  Ni  Ni855  1  0.30726615  0.32161264  0.37151077  1
  Ni  Ni856  1  0.62848924  0.32161264  0.30726615  1
  Ni  Ni857  1  0.37151077  0.32161264  0.30726615  1
  Ni  Ni858  1  0.62848924  0.67838734  0.69273385  1
  Ni  Ni859  1  0.30726615  0.67838734  0.62848924  1
  Ni  Ni860  1  0.37151077  0.67838734  0.30726615  1
  Ni  Ni861  1  0.62848924  0.32161264  0.69273385  1
  Ni  Ni862  1  0.37151077  0.32161264  0.69273385  1
  Ni  Ni863  1  0.30726615  0.67838734  0.37151077  1
  Ni  Ni864  1  0.37151077  0.67838734  0.69273385  1
  Ni  Ni865  1  0.37151077  0.44053754  0.75697847  1
  Ni  Ni866  1  0.62848924  0.44053754  0.75697847  1
  Ni  Ni867  1  0.62848924  0.44053754  0.24302154  1
  Ni  Ni868  1  0.62848924  0.55946244  0.24302154  1
  Ni  Ni869  1  0.75697847  0.44053754  0.62848924  1
  Ni  Ni870  1  0.37151077  0.55946244  0.75697847  1
  Ni  Ni871  1  0.75697847  0.55946244  0.37151077  1
  Ni  Ni872  1  0.24302154  0.44053754  0.62848924  1
  Ni  Ni873  1  0.37151077  0.44053754  0.24302154  1
  Ni  Ni874  1  0.75697847  0.44053754  0.37151077  1
  Ni  Ni875  1  0.24302154  0.44053754  0.37151077  1
  Ni  Ni876  1  0.75697847  0.55946244  0.62848924  1
  Ni  Ni877  1  0.24302154  0.55946244  0.37151077  1
  Ni  Ni878  1  0.24302154  0.55946244  0.62848924  1
  Ni  Ni879  1  0.37151077  0.55946244  0.24302154  1
  Ni  Ni880  1  0.62848924  0.55946244  0.75697847  1
  Ni  Ni881  1  0.46787770  0.55946244  0.21089924  1
  Ni  Ni882  1  0.46787770  0.44053754  0.21089924  1
  Ni  Ni883  1  0.21089924  0.44053754  0.46787770  1
  Ni  Ni884  1  0.21089924  0.55946244  0.46787770  1
  Ni  Ni885  1  0.53212232  0.55946244  0.21089924  1
  Ni  Ni886  1  0.53212232  0.44053754  0.21089924  1
  Ni  Ni887  1  0.21089924  0.55946244  0.53212232  1
  Ni  Ni888  1  0.21089924  0.44053754  0.53212232  1
  Ni  Ni889  1  0.78910079  0.55946244  0.46787770  1
  Ni  Ni890  1  0.78910079  0.44053754  0.46787770  1
  Ni  Ni891  1  0.46787770  0.44053754  0.78910079  1
  Ni  Ni892  1  0.46787770  0.55946244  0.78910079  1
  Ni  Ni893  1  0.78910079  0.55946244  0.53212232  1
  Ni  Ni894  1  0.78910079  0.44053754  0.53212232  1
  Ni  Ni895  1  0.53212232  0.44053754  0.78910079  1
  Ni  Ni896  1  0.53212232  0.55946244  0.78910079  1
  Ni  Ni897  1  0.50000000  0.20268774  0.50000000  1
  Ni  Ni898  1  0.50000000  0.79731224  0.50000000  1
  Ni  Ni899  1  0.69273385  0.61892489  0.30726615  1
  Ni  Ni900  1  0.69273385  0.61892489  0.69273385  1
  Ni  Ni901  1  0.69273385  0.38107509  0.30726615  1
  Ni  Ni902  1  0.69273385  0.38107509  0.69273385  1
  Ni  Ni903  1  0.30726615  0.61892489  0.30726615  1
  Ni  Ni904  1  0.30726615  0.38107509  0.30726615  1
  Ni  Ni905  1  0.30726615  0.61892489  0.69273385  1
  Ni  Ni906  1  0.30726615  0.38107509  0.69273385  1
  Ni  Ni907  1  0.62848924  0.26215019  0.62848924  1
  Ni  Ni908  1  0.37151077  0.26215019  0.62848924  1
  Ni  Ni909  1  0.62848924  0.73784979  0.37151077  1
  Ni  Ni910  1  0.62848924  0.26215019  0.37151077  1
  Ni  Ni911  1  0.37151077  0.26215019  0.37151077  1
  Ni  Ni912  1  0.62848924  0.73784979  0.62848924  1
  Ni  Ni913  1  0.37151077  0.73784979  0.37151077  1
  Ni  Ni914  1  0.37151077  0.73784979  0.62848924  1
  Ni  Ni915  1  0.46787770  0.20268774  0.46787770  1
  Ni  Ni916  1  0.46787770  0.79731224  0.46787770  1
  Ni  Ni917  1  0.46787770  0.20268774  0.53212232  1
  Ni  Ni918  1  0.46787770  0.79731224  0.53212232  1
  Ni  Ni919  1  0.53212232  0.20268774  0.46787770  1
  Ni  Ni920  1  0.53212232  0.79731224  0.46787770  1
  Ni  Ni921  1  0.53212232  0.20268774  0.53212232  1
  Ni  Ni922  1  0.53212232  0.79731224  0.53212232  1
  Ni  Ni923  1  0.27514385  0.38107509  0.33938847  1
  Ni  Ni924  1  0.27514385  0.61892489  0.33938847  1
  Ni  Ni925  1  0.33938847  0.38107509  0.27514385  1
  Ni  Ni926  1  0.33938847  0.61892489  0.27514385  1
  Ni  Ni927  1  0.66061155  0.38107509  0.27514385  1
  Ni  Ni928  1  0.66061155  0.61892489  0.27514385  1
  Ni  Ni929  1  0.27514385  0.38107509  0.66061155  1
  Ni  Ni930  1  0.27514385  0.61892489  0.66061155  1
  Ni  Ni931  1  0.33938847  0.38107509  0.72485617  1
  Ni  Ni932  1  0.72485617  0.61892489  0.33938847  1
  Ni  Ni933  1  0.33938847  0.61892489  0.72485617  1
  Ni  Ni934  1  0.72485617  0.38107509  0.33938847  1
  Ni  Ni935  1  0.66061155  0.38107509  0.72485617  1
  Ni  Ni936  1  0.66061155  0.61892489  0.72485617  1
  Ni  Ni937  1  0.72485617  0.61892489  0.66061155  1
  Ni  Ni938  1  0.72485617  0.38107509  0.66061155  1
  Ni  Ni939  1  0.40363309  0.73784979  0.33938847  1
  Ni  Ni940  1  0.33938847  0.26215019  0.40363309  1
  Ni  Ni941  1  0.40363309  0.26215019  0.33938847  1
  Ni  Ni942  1  0.33938847  0.73784979  0.40363309  1
  Ni  Ni943  1  0.59636694  0.73784979  0.33938847  1
  Ni  Ni944  1  0.33938847  0.73784979  0.59636694  1
  Ni  Ni945  1  0.33938847  0.26215019  0.59636694  1
  Ni  Ni946  1  0.59636694  0.26215019  0.33938847  1
  Ni  Ni947  1  0.66061155  0.73784979  0.40363309  1
  Ni  Ni948  1  0.66061155  0.26215019  0.40363309  1
  Ni  Ni949  1  0.40363309  0.26215019  0.66061155  1
  Ni  Ni950  1  0.40363309  0.73784979  0.66061155  1
  Ni  Ni951  1  0.66061155  0.73784979  0.59636694  1
  Ni  Ni952  1  0.66061155  0.26215019  0.59636694  1
  Ni  Ni953  1  0.59636694  0.73784979  0.66061155  1
  Ni  Ni954  1  0.59636694  0.26215019  0.66061155  1
  Ni  Ni955  1  0.27514385  0.32161264  0.40363309  1
  Ni  Ni956  1  0.40363309  0.67838734  0.27514385  1
  Ni  Ni957  1  0.40363309  0.32161264  0.27514385  1
  Ni  Ni958  1  0.27514385  0.67838734  0.40363309  1
  Ni  Ni959  1  0.59636694  0.67838734  0.27514385  1
  Ni  Ni960  1  0.27514385  0.32161264  0.59636694  1
  Ni  Ni961  1  0.59636694  0.32161264  0.27514385  1
  Ni  Ni962  1  0.27514385  0.67838734  0.59636694  1
  Ni  Ni963  1  0.40363309  0.32161264  0.72485617  1
  Ni  Ni964  1  0.72485617  0.67838734  0.40363309  1
  Ni  Ni965  1  0.40363309  0.67838734  0.72485617  1
  Ni  Ni966  1  0.72485617  0.32161264  0.40363309  1
  Ni  Ni967  1  0.59636694  0.32161264  0.72485617  1
  Ni  Ni968  1  0.72485617  0.32161264  0.59636694  1
  Ni  Ni969  1  0.59636694  0.67838734  0.72485617  1
  Ni  Ni970  1  0.72485617  0.67838734  0.59636694  1
  Ni  Ni971  1  0.50000000  0.20268774  0.56424462  1
  Ni  Ni972  1  0.56424462  0.20268774  0.50000000  1
  Ni  Ni973  1  0.50000000  0.20268774  0.43575539  1
  Ni  Ni974  1  0.43575539  0.20268774  0.50000000  1
  Ni  Ni975  1  0.50000000  0.79731224  0.56424462  1
  Ni  Ni976  1  0.50000000  0.79731224  0.43575539  1
  Ni  Ni977  1  0.43575539  0.79731224  0.50000000  1
  Ni  Ni978  1  0.56424462  0.79731224  0.50000000  1
  Ni  Ni979  1  0.40363309  0.49999999  0.21089924  1
  Ni  Ni980  1  0.21089924  0.49999999  0.40363309  1
  Ni  Ni981  1  0.59636694  0.49999999  0.21089924  1
  Ni  Ni982  1  0.21089924  0.49999999  0.59636694  1
  Ni  Ni983  1  0.78910079  0.49999999  0.40363309  1
  Ni  Ni984  1  0.40363309  0.49999999  0.78910079  1
  Ni  Ni985  1  0.78910079  0.49999999  0.59636694  1
  Ni  Ni986  1  0.59636694  0.49999999  0.78910079  1
  Ni  Ni987  1  0.69273385  0.26215019  0.50000000  1
  Ni  Ni988  1  0.69273385  0.73784979  0.50000000  1
  Ni  Ni989  1  0.50000000  0.26215019  0.30726615  1
  Ni  Ni990  1  0.30726615  0.26215019  0.50000000  1
  Ni  Ni991  1  0.50000000  0.73784979  0.69273385  1
  Ni  Ni992  1  0.50000000  0.73784979  0.30726615  1
  Ni  Ni993  1  0.30726615  0.73784979  0.50000000  1
  Ni  Ni994  1  0.50000000  0.26215019  0.69273385  1
  Ni  Ni995  1  0.40363309  0.44053754  0.21089924  1
  Ni  Ni996  1  0.40363309  0.55946244  0.21089924  1
  Ni  Ni997  1  0.21089924  0.44053754  0.40363309  1
  Ni  Ni998  1  0.21089924  0.55946244  0.40363309  1
  Ni  Ni999  1  0.59636694  0.44053754  0.21089924  1
  Ni  Ni1000  1  0.59636694  0.55946244  0.21089924  1
  Ni  Ni1001  1  0.21089924  0.44053754  0.59636694  1
  Ni  Ni1002  1  0.21089924  0.55946244  0.59636694  1
  Ni  Ni1003  1  0.78910079  0.55946244  0.40363309  1
  Ni  Ni1004  1  0.78910079  0.44053754  0.40363309  1
  Ni  Ni1005  1  0.40363309  0.44053754  0.78910079  1
  Ni  Ni1006  1  0.40363309  0.55946244  0.78910079  1
  Ni  Ni1007  1  0.78910079  0.55946244  0.59636694  1
  Ni  Ni1008  1  0.78910079  0.44053754  0.59636694  1
  Ni  Ni1009  1  0.59636694  0.44053754  0.78910079  1
  Ni  Ni1010  1  0.59636694  0.55946244  0.78910079  1
  Ni  Ni1011  1  0.56424462  0.20268774  0.56424462  1
  Ni  Ni1012  1  0.56424462  0.79731224  0.43575539  1
  Ni  Ni1013  1  0.43575539  0.79731224  0.43575539  1
  Ni  Ni1014  1  0.56424462  0.79731224  0.56424462  1
  Ni  Ni1015  1  0.43575539  0.20268774  0.43575539  1
  Ni  Ni1016  1  0.43575539  0.20268774  0.56424462  1
  Ni  Ni1017  1  0.56424462  0.20268774  0.43575539  1
  Ni  Ni1018  1  0.43575539  0.79731224  0.56424462  1
  Ni  Ni1019  1  0.62848924  0.61892489  0.24302154  1
  Ni  Ni1020  1  0.62848924  0.38107509  0.75697847  1
  Ni  Ni1021  1  0.62848924  0.38107509  0.24302154  1
  Ni  Ni1022  1  0.75697847  0.38107509  0.62848924  1
  Ni  Ni1023  1  0.37151077  0.38107509  0.24302154  1
  Ni  Ni1024  1  0.75697847  0.61892489  0.37151077  1
  Ni  Ni1025  1  0.37151077  0.38107509  0.75697847  1
  Ni  Ni1026  1  0.37151077  0.61892489  0.75697847  1
  Ni  Ni1027  1  0.24302154  0.38107509  0.62848924  1
  Ni  Ni1028  1  0.62848924  0.61892489  0.75697847  1
  Ni  Ni1029  1  0.75697847  0.61892489  0.62848924  1
  Ni  Ni1030  1  0.37151077  0.61892489  0.24302154  1
  Ni  Ni1031  1  0.24302154  0.61892489  0.62848924  1
  Ni  Ni1032  1  0.75697847  0.38107509  0.37151077  1
  Ni  Ni1033  1  0.24302154  0.38107509  0.37151077  1
  Ni  Ni1034  1  0.24302154  0.61892489  0.37151077  1
  Ni  Ni1035  1  0.69273385  0.73784979  0.56424462  1
  Ni  Ni1036  1  0.69273385  0.26215019  0.43575539  1
  Ni  Ni1037  1  0.69273385  0.73784979  0.43575539  1
  Ni  Ni1038  1  0.69273385  0.26215019  0.56424462  1
  Ni  Ni1039  1  0.56424462  0.26215019  0.30726615  1
  Ni  Ni1040  1  0.43575539  0.73784979  0.30726615  1
  Ni  Ni1041  1  0.56424462  0.73784979  0.69273385  1
  Ni  Ni1042  1  0.56424462  0.73784979  0.30726615  1
  Ni  Ni1043  1  0.43575539  0.73784979  0.69273385  1
  Ni  Ni1044  1  0.30726615  0.26215019  0.43575539  1
  Ni  Ni1045  1  0.56424462  0.26215019  0.69273385  1
  Ni  Ni1046  1  0.30726615  0.26215019  0.56424462  1
  Ni  Ni1047  1  0.43575539  0.26215019  0.30726615  1
  Ni  Ni1048  1  0.30726615  0.73784979  0.43575539  1
  Ni  Ni1049  1  0.30726615  0.73784979  0.56424462  1
  Ni  Ni1050  1  0.43575539  0.26215019  0.69273385  1
  Ni  Ni1051  1  0.50000000  0.32161264  0.75697847  1
  Ni  Ni1052  1  0.50000000  0.32161264  0.24302154  1
  Ni  Ni1053  1  0.75697847  0.32161264  0.50000000  1
  Ni  Ni1054  1  0.50000000  0.67838734  0.24302154  1
  Ni  Ni1055  1  0.24302154  0.32161264  0.50000000  1
  Ni  Ni1056  1  0.50000000  0.67838734  0.75697847  1
  Ni  Ni1057  1  0.75697847  0.67838734  0.50000000  1
  Ni  Ni1058  1  0.24302154  0.67838734  0.50000000  1
  Ni  Ni1059  1  0.40363309  0.20268774  0.46787770  1
  Ni  Ni1060  1  0.46787770  0.20268774  0.40363309  1
  Ni  Ni1061  1  0.46787770  0.79731224  0.40363309  1
  Ni  Ni1062  1  0.40363309  0.79731224  0.46787770  1
  Ni  Ni1063  1  0.40363309  0.20268774  0.53212232  1
  Ni  Ni1064  1  0.53212232  0.79731224  0.40363309  1
  Ni  Ni1065  1  0.53212232  0.20268774  0.40363309  1
  Ni  Ni1066  1  0.40363309  0.79731224  0.53212232  1
  Ni  Ni1067  1  0.59636694  0.20268774  0.46787770  1
  Ni  Ni1068  1  0.46787770  0.20268774  0.59636694  1
  Ni  Ni1069  1  0.59636694  0.79731224  0.46787770  1
  Ni  Ni1070  1  0.46787770  0.79731224  0.59636694  1
  Ni  Ni1071  1  0.59636694  0.20268774  0.53212232  1
  Ni  Ni1072  1  0.53212232  0.20268774  0.59636694  1
  Ni  Ni1073  1  0.53212232  0.79731224  0.59636694  1
  Ni  Ni1074  1  0.59636694  0.79731224  0.53212232  1
  Ni  Ni1075  1  0.46787770  0.38107509  0.21089924  1
  Ni  Ni1076  1  0.46787770  0.61892489  0.21089924  1
  Ni  Ni1077  1  0.21089924  0.38107509  0.46787770  1
  Ni  Ni1078  1  0.21089924  0.61892489  0.46787770  1
  Ni  Ni1079  1  0.53212232  0.61892489  0.21089924  1
  Ni  Ni1080  1  0.53212232  0.38107509  0.21089924  1
  Ni  Ni1081  1  0.21089924  0.38107509  0.53212232  1
  Ni  Ni1082  1  0.21089924  0.61892489  0.53212232  1
  Ni  Ni1083  1  0.78910079  0.61892489  0.46787770  1
  Ni  Ni1084  1  0.78910079  0.38107509  0.46787770  1
  Ni  Ni1085  1  0.46787770  0.38107509  0.78910079  1
  Ni  Ni1086  1  0.46787770  0.61892489  0.78910079  1
  Ni  Ni1087  1  0.78910079  0.38107509  0.53212232  1
  Ni  Ni1088  1  0.78910079  0.61892489  0.53212232  1
  Ni  Ni1089  1  0.53212232  0.61892489  0.78910079  1
  Ni  Ni1090  1  0.53212232  0.38107509  0.78910079  1
  Ni  Ni1091  1  0.27514385  0.49999999  0.27514385  1
  Ni  Ni1092  1  0.27514385  0.49999999  0.72485617  1
  Ni  Ni1093  1  0.72485617  0.49999999  0.27514385  1
  Ni  Ni1094  1  0.72485617  0.49999999  0.72485617  1
  Ni  Ni1095  1  0.56424462  0.32161264  0.75697847  1
  Ni  Ni1096  1  0.75697847  0.32161264  0.43575539  1
  Ni  Ni1097  1  0.56424462  0.32161264  0.24302154  1
  Ni  Ni1098  1  0.43575539  0.32161264  0.24302154  1
  Ni  Ni1099  1  0.43575539  0.32161264  0.75697847  1
  Ni  Ni1100  1  0.56424462  0.67838734  0.24302154  1
  Ni  Ni1101  1  0.56424462  0.67838734  0.75697847  1
  Ni  Ni1102  1  0.75697847  0.32161264  0.56424462  1
  Ni  Ni1103  1  0.75697847  0.67838734  0.43575539  1
  Ni  Ni1104  1  0.43575539  0.67838734  0.24302154  1
  Ni  Ni1105  1  0.24302154  0.32161264  0.43575539  1
  Ni  Ni1106  1  0.43575539  0.67838734  0.75697847  1
  Ni  Ni1107  1  0.24302154  0.67838734  0.56424462  1
  Ni  Ni1108  1  0.75697847  0.67838734  0.56424462  1
  Ni  Ni1109  1  0.24302154  0.67838734  0.43575539  1
  Ni  Ni1110  1  0.24302154  0.32161264  0.56424462  1
  Ni  Ni1111  1  0.69273385  0.49999999  0.24302154  1
  Ni  Ni1112  1  0.69273385  0.49999999  0.75697847  1
  Ni  Ni1113  1  0.30726615  0.49999999  0.75697847  1
  Ni  Ni1114  1  0.50000000  0.49999999  0.17877692  1
  Ni  Ni1115  1  0.82122309  0.49999999  0.50000000  1
  Ni  Ni1116  1  0.75697847  0.49999999  0.69273385  1
  Ni  Ni1117  1  0.75697847  0.49999999  0.30726615  1
  Ni  Ni1118  1  0.17877692  0.49999999  0.50000000  1
  Ni  Ni1119  1  0.30726615  0.49999999  0.24302154  1
  Ni  Ni1120  1  0.24302154  0.49999999  0.30726615  1
  Ni  Ni1121  1  0.24302154  0.49999999  0.69273385  1
  Ni  Ni1122  1  0.50000000  0.49999999  0.82122309  1
  Ni  Ni1123  1  0.27514385  0.55946244  0.27514385  1
  Ni  Ni1124  1  0.27514385  0.44053754  0.27514385  1
  Ni  Ni1125  1  0.27514385  0.44053754  0.72485617  1
  Ni  Ni1126  1  0.27514385  0.55946244  0.72485617  1
  Ni  Ni1127  1  0.72485617  0.55946244  0.27514385  1
  Ni  Ni1128  1  0.72485617  0.44053754  0.27514385  1
  Ni  Ni1129  1  0.72485617  0.44053754  0.72485617  1
  Ni  Ni1130  1  0.72485617  0.55946244  0.72485617  1
  Ni  Ni1131  1  0.50000000  0.20268774  0.62848924  1
  Ni  Ni1132  1  0.50000000  0.79731224  0.37151077  1
  Ni  Ni1133  1  0.50000000  0.79731224  0.62848924  1
  Ni  Ni1134  1  0.37151077  0.20268774  0.50000000  1
  Ni  Ni1135  1  0.50000000  0.20268774  0.37151077  1
  Ni  Ni1136  1  0.62848924  0.79731224  0.50000000  1
  Ni  Ni1137  1  0.62848924  0.20268774  0.50000000  1
  Ni  Ni1138  1  0.37151077  0.79731224  0.50000000  1
  Ni  Ni1139  1  0.69273385  0.32161264  0.30726615  1
  Ni  Ni1140  1  0.69273385  0.67838734  0.69273385  1
  Ni  Ni1141  1  0.69273385  0.67838734  0.30726615  1
  Ni  Ni1142  1  0.69273385  0.32161264  0.69273385  1
  Ni  Ni1143  1  0.30726615  0.32161264  0.30726615  1
  Ni  Ni1144  1  0.30726615  0.67838734  0.30726615  1
  Ni  Ni1145  1  0.30726615  0.32161264  0.69273385  1
  Ni  Ni1146  1  0.30726615  0.67838734  0.69273385  1
  Ni  Ni1147  1  0.69273385  0.55946244  0.24302154  1
  Ni  Ni1148  1  0.69273385  0.44053754  0.24302154  1
  Ni  Ni1149  1  0.82122309  0.44053754  0.50000000  1
  Ni  Ni1150  1  0.69273385  0.44053754  0.75697847  1
  Ni  Ni1151  1  0.82122309  0.55946244  0.50000000  1
  Ni  Ni1152  1  0.50000000  0.55946244  0.17877692  1
  Ni  Ni1153  1  0.69273385  0.55946244  0.75697847  1
  Ni  Ni1154  1  0.50000000  0.44053754  0.17877692  1
  Ni  Ni1155  1  0.75697847  0.55946244  0.69273385  1
  Ni  Ni1156  1  0.30726615  0.44053754  0.75697847  1
  Ni  Ni1157  1  0.75697847  0.44053754  0.69273385  1
  Ni  Ni1158  1  0.75697847  0.44053754  0.30726615  1
  Ni  Ni1159  1  0.30726615  0.55946244  0.75697847  1
  Ni  Ni1160  1  0.30726615  0.44053754  0.24302154  1
  Ni  Ni1161  1  0.75697847  0.55946244  0.30726615  1
  Ni  Ni1162  1  0.17877692  0.55946244  0.50000000  1
  Ni  Ni1163  1  0.17877692  0.44053754  0.50000000  1
  Ni  Ni1164  1  0.30726615  0.55946244  0.24302154  1
  Ni  Ni1165  1  0.24302154  0.55946244  0.30726615  1
  Ni  Ni1166  1  0.24302154  0.44053754  0.69273385  1
  Ni  Ni1167  1  0.24302154  0.55946244  0.69273385  1
  Ni  Ni1168  1  0.24302154  0.44053754  0.30726615  1
  Ni  Ni1169  1  0.50000000  0.55946244  0.82122309  1
  Ni  Ni1170  1  0.50000000  0.44053754  0.82122309  1
  Ni  Ni1171  1  0.40363309  0.20268774  0.40363309  1
  Ni  Ni1172  1  0.40363309  0.79731224  0.40363309  1
  Ni  Ni1173  1  0.40363309  0.20268774  0.59636694  1
  Ni  Ni1174  1  0.40363309  0.79731224  0.59636694  1
  Ni  Ni1175  1  0.59636694  0.20268774  0.40363309  1
  Ni  Ni1176  1  0.59636694  0.79731224  0.40363309  1
  Ni  Ni1177  1  0.59636694  0.20268774  0.59636694  1
  Ni  Ni1178  1  0.59636694  0.79731224  0.59636694  1
  Ni  Ni1179  1  0.40363309  0.38107509  0.21089924  1
  Ni  Ni1180  1  0.40363309  0.61892489  0.21089924  1
  Ni  Ni1181  1  0.21089924  0.38107509  0.40363309  1
  Ni  Ni1182  1  0.21089924  0.61892489  0.40363309  1
  Ni  Ni1183  1  0.59636694  0.61892489  0.21089924  1
  Ni  Ni1184  1  0.59636694  0.38107509  0.21089924  1
  Ni  Ni1185  1  0.21089924  0.38107509  0.59636694  1
  Ni  Ni1186  1  0.21089924  0.61892489  0.59636694  1
  Ni  Ni1187  1  0.78910079  0.61892489  0.40363309  1
  Ni  Ni1188  1  0.78910079  0.38107509  0.40363309  1
  Ni  Ni1189  1  0.40363309  0.61892489  0.78910079  1
  Ni  Ni1190  1  0.40363309  0.38107509  0.78910079  1
  Ni  Ni1191  1  0.78910079  0.38107509  0.59636694  1
  Ni  Ni1192  1  0.78910079  0.61892489  0.59636694  1
  Ni  Ni1193  1  0.59636694  0.38107509  0.78910079  1
  Ni  Ni1194  1  0.59636694  0.61892489  0.78910079  1
  Ni  Ni1195  1  0.82122309  0.49999999  0.56424462  1
  Ni  Ni1196  1  0.56424462  0.49999999  0.17877692  1
  Ni  Ni1197  1  0.82122309  0.49999999  0.43575539  1
  Ni  Ni1198  1  0.43575539  0.49999999  0.17877692  1
  Ni  Ni1199  1  0.17877692  0.49999999  0.43575539  1
  Ni  Ni1200  1  0.17877692  0.49999999  0.56424462  1
  Ni  Ni1201  1  0.56424462  0.49999999  0.82122309  1
  Ni  Ni1202  1  0.43575539  0.49999999  0.82122309  1
  Ni  Ni1203  1  0.33938847  0.26215019  0.33938847  1
  Ni  Ni1204  1  0.33938847  0.73784979  0.33938847  1
  Ni  Ni1205  1  0.27514385  0.26215019  0.46787770  1
  Ni  Ni1206  1  0.46787770  0.26215019  0.27514385  1
  Ni  Ni1207  1  0.46787770  0.73784979  0.27514385  1
  Ni  Ni1208  1  0.27514385  0.73784979  0.46787770  1
  Ni  Ni1209  1  0.53212232  0.26215019  0.27514385  1
  Ni  Ni1210  1  0.53212232  0.73784979  0.27514385  1
  Ni  Ni1211  1  0.27514385  0.26215019  0.53212232  1
  Ni  Ni1212  1  0.27514385  0.73784979  0.53212232  1
  Ni  Ni1213  1  0.66061155  0.73784979  0.33938847  1
  Ni  Ni1214  1  0.66061155  0.26215019  0.33938847  1
  Ni  Ni1215  1  0.33938847  0.73784979  0.66061155  1
  Ni  Ni1216  1  0.33938847  0.26215019  0.66061155  1
  Ni  Ni1217  1  0.46787770  0.26215019  0.72485617  1
  Ni  Ni1218  1  0.72485617  0.73784979  0.46787770  1
  Ni  Ni1219  1  0.72485617  0.26215019  0.46787770  1
  Ni  Ni1220  1  0.46787770  0.73784979  0.72485617  1
  Ni  Ni1221  1  0.53212232  0.26215019  0.72485617  1
  Ni  Ni1222  1  0.72485617  0.73784979  0.53212232  1
  Ni  Ni1223  1  0.53212232  0.73784979  0.72485617  1
  Ni  Ni1224  1  0.72485617  0.26215019  0.53212232  1
  Ni  Ni1225  1  0.66061155  0.73784979  0.66061155  1
  Ni  Ni1226  1  0.66061155  0.26215019  0.66061155  1
  Ni  Ni1227  1  0.33938847  0.32161264  0.27514385  1
  Ni  Ni1228  1  0.27514385  0.32161264  0.33938847  1
  Ni  Ni1229  1  0.33938847  0.67838734  0.27514385  1
  Ni  Ni1230  1  0.27514385  0.67838734  0.33938847  1
  Ni  Ni1231  1  0.66061155  0.32161264  0.27514385  1
  Ni  Ni1232  1  0.66061155  0.67838734  0.27514385  1
  Ni  Ni1233  1  0.27514385  0.32161264  0.66061155  1
  Ni  Ni1234  1  0.27514385  0.67838734  0.66061155  1
  Ni  Ni1235  1  0.33938847  0.32161264  0.72485617  1
  Ni  Ni1236  1  0.72485617  0.67838734  0.33938847  1
  Ni  Ni1237  1  0.33938847  0.67838734  0.72485617  1
  Ni  Ni1238  1  0.72485617  0.32161264  0.33938847  1
  Ni  Ni1239  1  0.66061155  0.32161264  0.72485617  1
  Ni  Ni1240  1  0.66061155  0.67838734  0.72485617  1
  Ni  Ni1241  1  0.72485617  0.67838734  0.66061155  1
  Ni  Ni1242  1  0.72485617  0.32161264  0.66061155  1
  Ni  Ni1243  1  0.56424462  0.20268774  0.62848924  1
  Ni  Ni1244  1  0.37151077  0.20268774  0.43575539  1
  Ni  Ni1245  1  0.43575539  0.79731224  0.62848924  1
  Ni  Ni1246  1  0.56424462  0.79731224  0.37151077  1
  Ni  Ni1247  1  0.62848924  0.20268774  0.43575539  1
  Ni  Ni1248  1  0.37151077  0.20268774  0.56424462  1
  Ni  Ni1249  1  0.43575539  0.20268774  0.37151077  1
  Ni  Ni1250  1  0.43575539  0.20268774  0.62848924  1
  Ni  Ni1251  1  0.62848924  0.20268774  0.56424462  1
  Ni  Ni1252  1  0.43575539  0.79731224  0.37151077  1
  Ni  Ni1253  1  0.56424462  0.20268774  0.37151077  1
  Ni  Ni1254  1  0.62848924  0.79731224  0.56424462  1
  Ni  Ni1255  1  0.37151077  0.79731224  0.43575539  1
  Ni  Ni1256  1  0.62848924  0.79731224  0.43575539  1
  Ni  Ni1257  1  0.56424462  0.79731224  0.62848924  1
  Ni  Ni1258  1  0.37151077  0.79731224  0.56424462  1
  Ni  Ni1259  1  0.33938847  0.49999999  0.21089924  1
  Ni  Ni1260  1  0.21089924  0.49999999  0.33938847  1
  Ni  Ni1261  1  0.66061155  0.49999999  0.21089924  1
  Ni  Ni1262  1  0.21089924  0.49999999  0.66061155  1
  Ni  Ni1263  1  0.78910079  0.49999999  0.33938847  1
  Ni  Ni1264  1  0.33938847  0.49999999  0.78910079  1
  Ni  Ni1265  1  0.78910079  0.49999999  0.66061155  1
  Ni  Ni1266  1  0.66061155  0.49999999  0.78910079  1
  Ni  Ni1267  1  0.69273385  0.73784979  0.37151077  1
  Ni  Ni1268  1  0.69273385  0.26215019  0.62848924  1
  Ni  Ni1269  1  0.30726615  0.26215019  0.62848924  1
  Ni  Ni1270  1  0.69273385  0.26215019  0.37151077  1
  Ni  Ni1271  1  0.62848924  0.73784979  0.30726615  1
  Ni  Ni1272  1  0.69273385  0.73784979  0.62848924  1
  Ni  Ni1273  1  0.62848924  0.73784979  0.69273385  1
  Ni  Ni1274  1  0.30726615  0.26215019  0.37151077  1
  Ni  Ni1275  1  0.37151077  0.73784979  0.30726615  1
  Ni  Ni1276  1  0.30726615  0.73784979  0.62848924  1
  Ni  Ni1277  1  0.37151077  0.26215019  0.69273385  1
  Ni  Ni1278  1  0.37151077  0.26215019  0.30726615  1
  Ni  Ni1279  1  0.62848924  0.26215019  0.30726615  1
  Ni  Ni1280  1  0.62848924  0.26215019  0.69273385  1
  Ni  Ni1281  1  0.30726615  0.73784979  0.37151077  1
  Ni  Ni1282  1  0.37151077  0.73784979  0.69273385  1
  Ni  Ni1283  1  0.82122309  0.44053754  0.43575539  1
  Ni  Ni1284  1  0.56424462  0.44053754  0.17877692  1
  Ni  Ni1285  1  0.82122309  0.55946244  0.56424462  1
  Ni  Ni1286  1  0.56424462  0.55946244  0.17877692  1
  Ni  Ni1287  1  0.82122309  0.55946244  0.43575539  1
  Ni  Ni1288  1  0.82122309  0.44053754  0.56424462  1
  Ni  Ni1289  1  0.43575539  0.55946244  0.17877692  1
  Ni  Ni1290  1  0.43575539  0.44053754  0.17877692  1
  Ni  Ni1291  1  0.17877692  0.44053754  0.43575539  1
  Ni  Ni1292  1  0.17877692  0.55946244  0.43575539  1
  Ni  Ni1293  1  0.17877692  0.44053754  0.56424462  1
  Ni  Ni1294  1  0.17877692  0.55946244  0.56424462  1
  Ni  Ni1295  1  0.56424462  0.44053754  0.82122309  1
  Ni  Ni1296  1  0.43575539  0.55946244  0.82122309  1
  Ni  Ni1297  1  0.56424462  0.55946244  0.82122309  1
  Ni  Ni1298  1  0.43575539  0.44053754  0.82122309  1
  Pt  Pt1299  1  0.53212230  0.47026878  0.50000000  1
  Pt  Pt1300  1  0.50000000  0.47026878  0.53212230  1
  Pt  Pt1301  1  0.53212230  0.52973123  0.50000000  1
  Pt  Pt1302  1  0.50000000  0.52973123  0.53212230  1
  Pt  Pt1303  1  0.50000000  0.47026878  0.46787769  1
  Pt  Pt1304  1  0.46787769  0.47026878  0.50000000  1
  Pt  Pt1305  1  0.50000000  0.52973123  0.46787769  1
  Pt  Pt1306  1  0.46787769  0.52973123  0.50000000  1
  Pt  Pt1307  1  0.53212230  0.47026878  0.56424462  1
  Pt  Pt1308  1  0.56424462  0.47026878  0.53212230  1
  Pt  Pt1309  1  0.53212230  0.47026878  0.43575539  1
  Pt  Pt1310  1  0.43575539  0.47026878  0.53212230  1
  Pt  Pt1311  1  0.56424462  0.52973123  0.53212230  1
  Pt  Pt1312  1  0.53212230  0.52973123  0.43575539  1
  Pt  Pt1313  1  0.53212230  0.52973123  0.56424462  1
  Pt  Pt1314  1  0.43575539  0.52973123  0.53212230  1
  Pt  Pt1315  1  0.56424462  0.47026878  0.46787769  1
  Pt  Pt1316  1  0.43575539  0.47026878  0.46787769  1
  Pt  Pt1317  1  0.46787769  0.47026878  0.56424462  1
  Pt  Pt1318  1  0.46787769  0.47026878  0.43575539  1
  Pt  Pt1319  1  0.56424462  0.52973123  0.46787769  1
  Pt  Pt1320  1  0.46787769  0.52973123  0.56424462  1
  Pt  Pt1321  1  0.46787769  0.52973123  0.43575539  1
  Pt  Pt1322  1  0.43575539  0.52973123  0.46787769  1
  Pt  Pt1323  1  0.53212230  0.41080633  0.50000000  1
  Pt  Pt1324  1  0.50000000  0.41080633  0.53212230  1
  Pt  Pt1325  1  0.50000000  0.41080633  0.46787769  1
  Pt  Pt1326  1  0.46787769  0.41080633  0.50000000  1
  Pt  Pt1327  1  0.53212230  0.58919368  0.50000000  1
  Pt  Pt1328  1  0.50000000  0.58919368  0.53212230  1
  Pt  Pt1329  1  0.50000000  0.58919368  0.46787769  1
  Pt  Pt1330  1  0.46787769  0.58919368  0.50000000  1
  Pt  Pt1331  1  0.59636692  0.47026878  0.50000000  1
  Pt  Pt1332  1  0.50000000  0.47026878  0.59636692  1
  Pt  Pt1333  1  0.59636692  0.52973123  0.50000000  1
  Pt  Pt1334  1  0.50000000  0.52973123  0.59636692  1
  Pt  Pt1335  1  0.50000000  0.47026878  0.40363307  1
  Pt  Pt1336  1  0.40363307  0.47026878  0.50000000  1
  Pt  Pt1337  1  0.50000000  0.52973123  0.40363307  1
  Pt  Pt1338  1  0.40363307  0.52973123  0.50000000  1
  Pt  Pt1339  1  0.56424462  0.41080633  0.53212230  1
  Pt  Pt1340  1  0.53212230  0.41080633  0.43575539  1
  Pt  Pt1341  1  0.53212230  0.41080633  0.56424462  1
  Pt  Pt1342  1  0.43575539  0.41080633  0.53212230  1
  Pt  Pt1343  1  0.56424462  0.41080633  0.46787769  1
  Pt  Pt1344  1  0.46787769  0.41080633  0.43575539  1
  Pt  Pt1345  1  0.46787769  0.41080633  0.56424462  1
  Pt  Pt1346  1  0.43575539  0.41080633  0.46787769  1
  Pt  Pt1347  1  0.53212230  0.58919368  0.43575539  1
  Pt  Pt1348  1  0.56424462  0.58919368  0.53212230  1
  Pt  Pt1349  1  0.53212230  0.58919368  0.56424462  1
  Pt  Pt1350  1  0.43575539  0.58919368  0.53212230  1
  Pt  Pt1351  1  0.56424462  0.58919368  0.46787769  1
  Pt  Pt1352  1  0.46787769  0.58919368  0.56424462  1
  Pt  Pt1353  1  0.46787769  0.58919368  0.43575539  1
  Pt  Pt1354  1  0.43575539  0.58919368  0.46787769  1
  Pt  Pt1355  1  0.56424462  0.47026878  0.59636692  1
  Pt  Pt1356  1  0.59636692  0.47026878  0.43575539  1
  Pt  Pt1357  1  0.59636692  0.47026878  0.56424462  1
  Pt  Pt1358  1  0.43575539  0.47026878  0.59636692  1
  Pt  Pt1359  1  0.56424462  0.52973123  0.59636692  1
  Pt  Pt1360  1  0.59636692  0.52973123  0.43575539  1
  Pt  Pt1361  1  0.43575539  0.52973123  0.59636692  1
  Pt  Pt1362  1  0.59636692  0.52973123  0.56424462  1
  Pt  Pt1363  1  0.56424462  0.47026878  0.40363307  1
  Pt  Pt1364  1  0.43575539  0.47026878  0.40363307  1
  Pt  Pt1365  1  0.40363307  0.47026878  0.43575539  1
  Pt  Pt1366  1  0.40363307  0.47026878  0.56424462  1
  Pt  Pt1367  1  0.56424462  0.52973123  0.40363307  1
  Pt  Pt1368  1  0.43575539  0.52973123  0.40363307  1
  Pt  Pt1369  1  0.40363307  0.52973123  0.56424462  1
  Pt  Pt1370  1  0.40363307  0.52973123  0.43575539  1
  Pt  Pt1371  1  0.59636692  0.41080633  0.50000000  1
  Pt  Pt1372  1  0.50000000  0.41080633  0.59636692  1
  Pt  Pt1373  1  0.59636692  0.58919368  0.50000000  1
  Pt  Pt1374  1  0.50000000  0.58919368  0.59636692  1
  Pt  Pt1375  1  0.50000000  0.41080633  0.40363307  1
  Pt  Pt1376  1  0.40363307  0.41080633  0.50000000  1
  Pt  Pt1377  1  0.50000000  0.58919368  0.40363307  1
  Pt  Pt1378  1  0.40363307  0.58919368  0.50000000  1
  Pt  Pt1379  1  0.53212230  0.47026878  0.62848924  1
  Pt  Pt1380  1  0.53212230  0.47026878  0.37151077  1
  Pt  Pt1381  1  0.62848924  0.47026878  0.53212230  1
  Pt  Pt1382  1  0.37151077  0.47026878  0.53212230  1
  Pt  Pt1383  1  0.53212230  0.52973123  0.62848924  1
  Pt  Pt1384  1  0.53212230  0.52973123  0.37151077  1
  Pt  Pt1385  1  0.62848924  0.52973123  0.53212230  1
  Pt  Pt1386  1  0.37151077  0.52973123  0.53212230  1
  Pt  Pt1387  1  0.46787769  0.47026878  0.62848924  1
  Pt  Pt1388  1  0.37151077  0.47026878  0.46787769  1
  Pt  Pt1389  1  0.62848924  0.47026878  0.46787769  1
  Pt  Pt1390  1  0.46787769  0.47026878  0.37151077  1
  Pt  Pt1391  1  0.46787769  0.52973123  0.62848924  1
  Pt  Pt1392  1  0.46787769  0.52973123  0.37151077  1
  Pt  Pt1393  1  0.62848924  0.52973123  0.46787769  1
  Pt  Pt1394  1  0.37151077  0.52973123  0.46787769  1
  Pt  Pt1395  1  0.56424462  0.41080633  0.59636692  1
  Pt  Pt1396  1  0.59636692  0.41080633  0.56424462  1
  Pt  Pt1397  1  0.59636692  0.41080633  0.43575539  1
  Pt  Pt1398  1  0.43575539  0.41080633  0.59636692  1
  Pt  Pt1399  1  0.59636692  0.58919368  0.43575539  1
  Pt  Pt1400  1  0.59636692  0.58919368  0.56424462  1
  Pt  Pt1401  1  0.56424462  0.58919368  0.59636692  1
  Pt  Pt1402  1  0.43575539  0.58919368  0.59636692  1
  Pt  Pt1403  1  0.56424462  0.41080633  0.40363307  1
  Pt  Pt1404  1  0.43575539  0.41080633  0.40363307  1
  Pt  Pt1405  1  0.40363307  0.41080633  0.43575539  1
  Pt  Pt1406  1  0.40363307  0.41080633  0.56424462  1
  Pt  Pt1407  1  0.56424462  0.58919368  0.40363307  1
  Pt  Pt1408  1  0.43575539  0.58919368  0.40363307  1
  Pt  Pt1409  1  0.40363307  0.58919368  0.43575539  1
  Pt  Pt1410  1  0.40363307  0.58919368  0.56424462  1
  Pt  Pt1411  1  0.53212230  0.35134388  0.50000000  1
  Pt  Pt1412  1  0.50000000  0.35134388  0.53212230  1
  Pt  Pt1413  1  0.50000000  0.35134388  0.46787769  1
  Pt  Pt1414  1  0.46787769  0.35134388  0.50000000  1
  Pt  Pt1415  1  0.53212230  0.64865613  0.50000000  1
  Pt  Pt1416  1  0.50000000  0.64865613  0.53212230  1
  Pt  Pt1417  1  0.50000000  0.64865613  0.46787769  1
  Pt  Pt1418  1  0.46787769  0.64865613  0.50000000  1
  Pt  Pt1419  1  0.53212230  0.41080633  0.62848924  1
  Pt  Pt1420  1  0.53212230  0.41080633  0.37151077  1
  Pt  Pt1421  1  0.62848924  0.41080633  0.53212230  1
  Pt  Pt1422  1  0.37151077  0.41080633  0.53212230  1
  Pt  Pt1423  1  0.46787769  0.41080633  0.62848924  1
  Pt  Pt1424  1  0.62848924  0.41080633  0.46787769  1
  Pt  Pt1425  1  0.37151077  0.41080633  0.46787769  1
  Pt  Pt1426  1  0.46787769  0.41080633  0.37151077  1
  Pt  Pt1427  1  0.53212230  0.58919368  0.62848924  1
  Pt  Pt1428  1  0.53212230  0.58919368  0.37151077  1
  Pt  Pt1429  1  0.62848924  0.58919368  0.53212230  1
  Pt  Pt1430  1  0.37151077  0.58919368  0.53212230  1
  Pt  Pt1431  1  0.46787769  0.58919368  0.62848924  1
  Pt  Pt1432  1  0.46787769  0.58919368  0.37151077  1
  Pt  Pt1433  1  0.62848924  0.58919368  0.46787769  1
  Pt  Pt1434  1  0.37151077  0.58919368  0.46787769  1
  Pt  Pt1435  1  0.50000000  0.47026878  0.66061154  1
  Pt  Pt1436  1  0.66061154  0.47026878  0.50000000  1
  Pt  Pt1437  1  0.66061154  0.52973123  0.50000000  1
  Pt  Pt1438  1  0.50000000  0.52973123  0.66061154  1
  Pt  Pt1439  1  0.59636692  0.47026878  0.62848924  1
  Pt  Pt1440  1  0.59636692  0.47026878  0.37151077  1
  Pt  Pt1441  1  0.62848924  0.47026878  0.59636692  1
  Pt  Pt1442  1  0.37151077  0.47026878  0.59636692  1
  Pt  Pt1443  1  0.59636692  0.52973123  0.62848924  1
  Pt  Pt1444  1  0.59636692  0.52973123  0.37151077  1
  Pt  Pt1445  1  0.62848924  0.52973123  0.59636692  1
  Pt  Pt1446  1  0.37151077  0.52973123  0.59636692  1
  Pt  Pt1447  1  0.40363307  0.47026878  0.62848924  1
  Pt  Pt1448  1  0.62848924  0.47026878  0.40363307  1
  Pt  Pt1449  1  0.37151077  0.47026878  0.40363307  1
  Pt  Pt1450  1  0.40363307  0.47026878  0.37151077  1
  Pt  Pt1451  1  0.40363307  0.52973123  0.62848924  1
  Pt  Pt1452  1  0.62848924  0.52973123  0.40363307  1
  Pt  Pt1453  1  0.40363307  0.52973123  0.37151077  1
  Pt  Pt1454  1  0.37151077  0.52973123  0.40363307  1
  Pt  Pt1455  1  0.33938845  0.47026878  0.50000000  1
  Pt  Pt1456  1  0.50000000  0.47026878  0.33938845  1
  Pt  Pt1457  1  0.50000000  0.52973123  0.33938845  1
  Pt  Pt1458  1  0.33938845  0.52973123  0.50000000  1
  Pt  Pt1459  1  0.53212230  0.35134388  0.43575539  1
  Pt  Pt1460  1  0.56424462  0.35134388  0.53212230  1
  Pt  Pt1461  1  0.53212230  0.35134388  0.56424462  1
  Pt  Pt1462  1  0.43575539  0.35134388  0.53212230  1
  Pt  Pt1463  1  0.56424462  0.35134388  0.46787769  1
  Pt  Pt1464  1  0.43575539  0.35134388  0.46787769  1
  Pt  Pt1465  1  0.46787769  0.35134388  0.43575539  1
  Pt  Pt1466  1  0.46787769  0.35134388  0.56424462  1
  Pt  Pt1467  1  0.53212230  0.64865613  0.43575539  1
  Pt  Pt1468  1  0.56424462  0.64865613  0.53212230  1
  Pt  Pt1469  1  0.53212230  0.64865613  0.56424462  1
  Pt  Pt1470  1  0.43575539  0.64865613  0.53212230  1
  Pt  Pt1471  1  0.56424462  0.64865613  0.46787769  1
  Pt  Pt1472  1  0.46787769  0.64865613  0.43575539  1
  Pt  Pt1473  1  0.43575539  0.64865613  0.46787769  1
  Pt  Pt1474  1  0.46787769  0.64865613  0.56424462  1
  Pt  Pt1475  1  0.66061154  0.47026878  0.43575539  1
  Pt  Pt1476  1  0.43575539  0.47026878  0.66061154  1
  Pt  Pt1477  1  0.66061154  0.47026878  0.56424462  1
  Pt  Pt1478  1  0.56424462  0.47026878  0.66061154  1
  Pt  Pt1479  1  0.66061154  0.52973123  0.43575539  1
  Pt  Pt1480  1  0.66061154  0.52973123  0.56424462  1
  Pt  Pt1481  1  0.43575539  0.52973123  0.66061154  1
  Pt  Pt1482  1  0.56424462  0.52973123  0.66061154  1
  Pt  Pt1483  1  0.56424462  0.47026878  0.33938845  1
  Pt  Pt1484  1  0.33938845  0.47026878  0.56424462  1
  Pt  Pt1485  1  0.33938845  0.47026878  0.43575539  1
  Pt  Pt1486  1  0.43575539  0.47026878  0.33938845  1
  Pt  Pt1487  1  0.56424462  0.52973123  0.33938845  1
  Pt  Pt1488  1  0.43575539  0.52973123  0.33938845  1
  Pt  Pt1489  1  0.33938845  0.52973123  0.43575539  1
  Pt  Pt1490  1  0.33938845  0.52973123  0.56424462  1
  Pt  Pt1491  1  0.59636692  0.35134388  0.50000000  1
  Pt  Pt1492  1  0.50000000  0.35134388  0.59636692  1
  Pt  Pt1493  1  0.50000000  0.35134388  0.40363307  1
  Pt  Pt1494  1  0.40363307  0.35134388  0.50000000  1
  Pt  Pt1495  1  0.59636692  0.64865613  0.50000000  1
  Pt  Pt1496  1  0.50000000  0.64865613  0.59636692  1
  Pt  Pt1497  1  0.50000000  0.64865613  0.40363307  1
  Pt  Pt1498  1  0.40363307  0.64865613  0.50000000  1
  Pt  Pt1499  1  0.50000000  0.41080633  0.66061154  1
  Pt  Pt1500  1  0.66061154  0.41080633  0.50000000  1
  Pt  Pt1501  1  0.59636692  0.41080633  0.62848924  1
  Pt  Pt1502  1  0.59636692  0.41080633  0.37151077  1
  Pt  Pt1503  1  0.62848924  0.41080633  0.59636692  1
  Pt  Pt1504  1  0.37151077  0.41080633  0.59636692  1
  Pt  Pt1505  1  0.66061154  0.58919368  0.50000000  1
  Pt  Pt1506  1  0.50000000  0.58919368  0.66061154  1
  Pt  Pt1507  1  0.59636692  0.58919368  0.62848924  1
  Pt  Pt1508  1  0.59636692  0.58919368  0.37151077  1
  Pt  Pt1509  1  0.62848924  0.58919368  0.59636692  1
  Pt  Pt1510  1  0.37151077  0.58919368  0.59636692  1
  Pt  Pt1511  1  0.40363307  0.41080633  0.62848924  1
  Pt  Pt1512  1  0.62848924  0.41080633  0.40363307  1
  Pt  Pt1513  1  0.37151077  0.41080633  0.40363307  1
  Pt  Pt1514  1  0.40363307  0.41080633  0.37151077  1
  Pt  Pt1515  1  0.33938845  0.41080633  0.50000000  1
  Pt  Pt1516  1  0.50000000  0.41080633  0.33938845  1
  Pt  Pt1517  1  0.40363307  0.58919368  0.62848924  1
  Pt  Pt1518  1  0.62848924  0.58919368  0.40363307  1
  Pt  Pt1519  1  0.40363307  0.58919368  0.37151077  1
  Pt  Pt1520  1  0.37151077  0.58919368  0.40363307  1
  Pt  Pt1521  1  0.50000000  0.58919368  0.33938845  1
  Pt  Pt1522  1  0.33938845  0.58919368  0.50000000  1
  Pt  Pt1523  1  0.59636692  0.35134388  0.56424462  1
  Pt  Pt1524  1  0.59636692  0.35134388  0.43575539  1
  Pt  Pt1525  1  0.56424462  0.35134388  0.59636692  1
  Pt  Pt1526  1  0.43575539  0.35134388  0.59636692  1
  Pt  Pt1527  1  0.56424462  0.35134388  0.40363307  1
  Pt  Pt1528  1  0.43575539  0.35134388  0.40363307  1
  Pt  Pt1529  1  0.40363307  0.35134388  0.56424462  1
  Pt  Pt1530  1  0.40363307  0.35134388  0.43575539  1
  Pt  Pt1531  1  0.59636692  0.64865613  0.43575539  1
  Pt  Pt1532  1  0.59636692  0.64865613  0.56424462  1
  Pt  Pt1533  1  0.56424462  0.64865613  0.59636692  1
  Pt  Pt1534  1  0.43575539  0.64865613  0.59636692  1
  Pt  Pt1535  1  0.56424462  0.64865613  0.40363307  1
  Pt  Pt1536  1  0.40363307  0.64865613  0.56424462  1
  Pt  Pt1537  1  0.40363307  0.64865613  0.43575539  1
  Pt  Pt1538  1  0.43575539  0.64865613  0.40363307  1
  Pt  Pt1539  1  0.56424462  0.41080633  0.66061154  1
  Pt  Pt1540  1  0.43575539  0.41080633  0.66061154  1
  Pt  Pt1541  1  0.66061154  0.41080633  0.43575539  1
  Pt  Pt1542  1  0.66061154  0.41080633  0.56424462  1
  Pt  Pt1543  1  0.66061154  0.58919368  0.43575539  1
  Pt  Pt1544  1  0.66061154  0.58919368  0.56424462  1
  Pt  Pt1545  1  0.56424462  0.58919368  0.66061154  1
  Pt  Pt1546  1  0.43575539  0.58919368  0.66061154  1
  Pt  Pt1547  1  0.56424462  0.41080633  0.33938845  1
  Pt  Pt1548  1  0.43575539  0.41080633  0.33938845  1
  Pt  Pt1549  1  0.33938845  0.41080633  0.56424462  1
  Pt  Pt1550  1  0.33938845  0.41080633  0.43575539  1
  Pt  Pt1551  1  0.56424462  0.58919368  0.33938845  1
  Pt  Pt1552  1  0.43575539  0.58919368  0.33938845  1
  Pt  Pt1553  1  0.33938845  0.58919368  0.56424462  1
  Pt  Pt1554  1  0.33938845  0.58919368  0.43575539  1
  Pt  Pt1555  1  0.69273385  0.47026878  0.53212230  1
  Pt  Pt1556  1  0.53212230  0.47026878  0.30726615  1
  Pt  Pt1557  1  0.30726615  0.47026878  0.53212230  1
  Pt  Pt1558  1  0.53212230  0.47026878  0.69273385  1
  Pt  Pt1559  1  0.69273385  0.52973123  0.53212230  1
  Pt  Pt1560  1  0.53212230  0.52973123  0.30726615  1
  Pt  Pt1561  1  0.53212230  0.52973123  0.69273385  1
  Pt  Pt1562  1  0.30726615  0.52973123  0.53212230  1
  Pt  Pt1563  1  0.69273385  0.47026878  0.46787769  1
  Pt  Pt1564  1  0.46787769  0.47026878  0.30726615  1
  Pt  Pt1565  1  0.30726615  0.47026878  0.46787769  1
  Pt  Pt1566  1  0.46787769  0.47026878  0.69273385  1
  Pt  Pt1567  1  0.69273385  0.52973123  0.46787769  1
  Pt  Pt1568  1  0.46787769  0.52973123  0.30726615  1
  Pt  Pt1569  1  0.46787769  0.52973123  0.69273385  1
  Pt  Pt1570  1  0.30726615  0.52973123  0.46787769  1
  Pt  Pt1571  1  0.53212230  0.35134388  0.62848924  1
  Pt  Pt1572  1  0.53212230  0.35134388  0.37151077  1
  Pt  Pt1573  1  0.62848924  0.35134388  0.53212230  1
  Pt  Pt1574  1  0.37151077  0.35134388  0.53212230  1
  Pt  Pt1575  1  0.46787769  0.35134388  0.62848924  1
  Pt  Pt1576  1  0.37151077  0.35134388  0.46787769  1
  Pt  Pt1577  1  0.62848924  0.35134388  0.46787769  1
  Pt  Pt1578  1  0.46787769  0.35134388  0.37151077  1
  Pt  Pt1579  1  0.53212230  0.64865613  0.62848924  1
  Pt  Pt1580  1  0.53212230  0.64865613  0.37151077  1
  Pt  Pt1581  1  0.62848924  0.64865613  0.53212230  1
  Pt  Pt1582  1  0.37151077  0.64865613  0.53212230  1
  Pt  Pt1583  1  0.46787769  0.64865613  0.62848924  1
  Pt  Pt1584  1  0.46787769  0.64865613  0.37151077  1
  Pt  Pt1585  1  0.62848924  0.64865613  0.46787769  1
  Pt  Pt1586  1  0.37151077  0.64865613  0.46787769  1
  Pt  Pt1587  1  0.66061154  0.47026878  0.62848924  1
  Pt  Pt1588  1  0.66061154  0.47026878  0.37151077  1
  Pt  Pt1589  1  0.37151077  0.47026878  0.66061154  1
  Pt  Pt1590  1  0.62848924  0.47026878  0.66061154  1
  Pt  Pt1591  1  0.66061154  0.52973123  0.62848924  1
  Pt  Pt1592  1  0.66061154  0.52973123  0.37151077  1
  Pt  Pt1593  1  0.37151077  0.52973123  0.66061154  1
  Pt  Pt1594  1  0.62848924  0.52973123  0.66061154  1
  Pt  Pt1595  1  0.33938845  0.47026878  0.62848924  1
  Pt  Pt1596  1  0.62848924  0.47026878  0.33938845  1
  Pt  Pt1597  1  0.37151077  0.47026878  0.33938845  1
  Pt  Pt1598  1  0.33938845  0.47026878  0.37151077  1
  Pt  Pt1599  1  0.62848924  0.52973123  0.33938845  1
  Pt  Pt1600  1  0.33938845  0.52973123  0.62848924  1
  Pt  Pt1601  1  0.37151077  0.52973123  0.33938845  1
  Pt  Pt1602  1  0.33938845  0.52973123  0.37151077  1
  Pt  Pt1603  1  0.53212230  0.29188143  0.50000000  1
  Pt  Pt1604  1  0.50000000  0.29188143  0.53212230  1
  Pt  Pt1605  1  0.50000000  0.29188143  0.46787769  1
  Pt  Pt1606  1  0.46787769  0.29188143  0.50000000  1
  Pt  Pt1607  1  0.53212230  0.70811858  0.50000000  1
  Pt  Pt1608  1  0.50000000  0.70811858  0.53212230  1
  Pt  Pt1609  1  0.50000000  0.70811858  0.46787769  1
  Pt  Pt1610  1  0.46787769  0.70811858  0.50000000  1
  Pt  Pt1611  1  0.69273385  0.41080633  0.53212230  1
  Pt  Pt1612  1  0.53212230  0.41080633  0.30726615  1
  Pt  Pt1613  1  0.30726615  0.41080633  0.53212230  1
  Pt  Pt1614  1  0.53212230  0.41080633  0.69273385  1
  Pt  Pt1615  1  0.69273385  0.41080633  0.46787769  1
  Pt  Pt1616  1  0.46787769  0.41080633  0.30726615  1
  Pt  Pt1617  1  0.30726615  0.41080633  0.46787769  1
  Pt  Pt1618  1  0.46787769  0.41080633  0.69273385  1
  Pt  Pt1619  1  0.69273385  0.58919368  0.53212230  1
  Pt  Pt1620  1  0.53212230  0.58919368  0.30726615  1
  Pt  Pt1621  1  0.53212230  0.58919368  0.69273385  1
  Pt  Pt1622  1  0.30726615  0.58919368  0.53212230  1
  Pt  Pt1623  1  0.69273385  0.58919368  0.46787769  1
  Pt  Pt1624  1  0.46787769  0.58919368  0.30726615  1
  Pt  Pt1625  1  0.30726615  0.58919368  0.46787769  1
  Pt  Pt1626  1  0.46787769  0.58919368  0.69273385  1
  Pt  Pt1627  1  0.69273385  0.47026878  0.59636692  1
  Pt  Pt1628  1  0.59636692  0.47026878  0.30726615  1
  Pt  Pt1629  1  0.59636692  0.47026878  0.69273385  1
  Pt  Pt1630  1  0.30726615  0.47026878  0.59636692  1
  Pt  Pt1631  1  0.69273385  0.52973123  0.59636692  1
  Pt  Pt1632  1  0.59636692  0.52973123  0.30726615  1
  Pt  Pt1633  1  0.59636692  0.52973123  0.69273385  1
  Pt  Pt1634  1  0.30726615  0.52973123  0.59636692  1
  Pt  Pt1635  1  0.69273385  0.47026878  0.40363307  1
  Pt  Pt1636  1  0.40363307  0.47026878  0.30726615  1
  Pt  Pt1637  1  0.30726615  0.47026878  0.40363307  1
  Pt  Pt1638  1  0.40363307  0.47026878  0.69273385  1
  Pt  Pt1639  1  0.69273385  0.52973123  0.40363307  1
  Pt  Pt1640  1  0.30726615  0.52973123  0.40363307  1
  Pt  Pt1641  1  0.40363307  0.52973123  0.30726615  1
  Pt  Pt1642  1  0.40363307  0.52973123  0.69273385  1
  Pt  Pt1643  1  0.66061154  0.35134388  0.50000000  1
  Pt  Pt1644  1  0.50000000  0.35134388  0.66061154  1
  Pt  Pt1645  1  0.59636692  0.35134388  0.62848924  1
  Pt  Pt1646  1  0.59636692  0.35134388  0.37151077  1
  Pt  Pt1647  1  0.62848924  0.35134388  0.59636692  1
  Pt  Pt1648  1  0.37151077  0.35134388  0.59636692  1
  Pt  Pt1649  1  0.40363307  0.35134388  0.62848924  1
  Pt  Pt1650  1  0.62848924  0.35134388  0.40363307  1
  Pt  Pt1651  1  0.37151077  0.35134388  0.40363307  1
  Pt  Pt1652  1  0.40363307  0.35134388  0.37151077  1
  Pt  Pt1653  1  0.66061154  0.64865613  0.50000000  1
  Pt  Pt1654  1  0.50000000  0.64865613  0.66061154  1
  Pt  Pt1655  1  0.50000000  0.35134388  0.33938845  1
  Pt  Pt1656  1  0.33938845  0.35134388  0.50000000  1
  Pt  Pt1657  1  0.59636692  0.64865613  0.62848924  1
  Pt  Pt1658  1  0.59636692  0.64865613  0.37151077  1
  Pt  Pt1659  1  0.62848924  0.64865613  0.59636692  1
  Pt  Pt1660  1  0.37151077  0.64865613  0.59636692  1
  Pt  Pt1661  1  0.62848924  0.64865613  0.40363307  1
  Pt  Pt1662  1  0.40363307  0.64865613  0.62848924  1
  Pt  Pt1663  1  0.40363307  0.64865613  0.37151077  1
  Pt  Pt1664  1  0.37151077  0.64865613  0.40363307  1
  Pt  Pt1665  1  0.50000000  0.64865613  0.33938845  1
  Pt  Pt1666  1  0.33938845  0.64865613  0.50000000  1
  Pt  Pt1667  1  0.56424462  0.29188143  0.53212230  1
  Pt  Pt1668  1  0.43575539  0.29188143  0.53212230  1
  Pt  Pt1669  1  0.53212230  0.29188143  0.43575539  1
  Pt  Pt1670  1  0.53212230  0.29188143  0.56424462  1
  Pt  Pt1671  1  0.56424462  0.29188143  0.46787769  1
  Pt  Pt1672  1  0.43575539  0.29188143  0.46787769  1
  Pt  Pt1673  1  0.46787769  0.29188143  0.43575539  1
  Pt  Pt1674  1  0.46787769  0.29188143  0.56424462  1
  Pt  Pt1675  1  0.53212230  0.70811858  0.43575539  1
  Pt  Pt1676  1  0.56424462  0.70811858  0.53212230  1
  Pt  Pt1677  1  0.53212230  0.70811858  0.56424462  1
  Pt  Pt1678  1  0.43575539  0.70811858  0.53212230  1
  Pt  Pt1679  1  0.56424462  0.70811858  0.46787769  1
  Pt  Pt1680  1  0.46787769  0.70811858  0.43575539  1
  Pt  Pt1681  1  0.43575539  0.70811858  0.46787769  1
  Pt  Pt1682  1  0.46787769  0.70811858  0.56424462  1
  Pt  Pt1683  1  0.66061154  0.41080633  0.62848924  1
  Pt  Pt1684  1  0.37151077  0.41080633  0.66061154  1
  Pt  Pt1685  1  0.66061154  0.41080633  0.37151077  1
  Pt  Pt1686  1  0.62848924  0.41080633  0.66061154  1
  Pt  Pt1687  1  0.66061154  0.58919368  0.62848924  1
  Pt  Pt1688  1  0.66061154  0.58919368  0.37151077  1
  Pt  Pt1689  1  0.37151077  0.58919368  0.66061154  1
  Pt  Pt1690  1  0.62848924  0.58919368  0.66061154  1
  Pt  Pt1691  1  0.33938845  0.41080633  0.62848924  1
  Pt  Pt1692  1  0.62848924  0.41080633  0.33938845  1
  Pt  Pt1693  1  0.33938845  0.41080633  0.37151077  1
  Pt  Pt1694  1  0.37151077  0.41080633  0.33938845  1
  Pt  Pt1695  1  0.33938845  0.58919368  0.62848924  1
  Pt  Pt1696  1  0.62848924  0.58919368  0.33938845  1
  Pt  Pt1697  1  0.37151077  0.58919368  0.33938845  1
  Pt  Pt1698  1  0.33938845  0.58919368  0.37151077  1
  Pt  Pt1699  1  0.72485615  0.47026878  0.50000000  1
  Pt  Pt1700  1  0.50000000  0.47026878  0.72485615  1
  Pt  Pt1701  1  0.50000000  0.52973123  0.72485615  1
  Pt  Pt1702  1  0.72485615  0.52973123  0.50000000  1
  Pt  Pt1703  1  0.50000000  0.47026878  0.27514384  1
  Pt  Pt1704  1  0.27514384  0.47026878  0.50000000  1
  Pt  Pt1705  1  0.50000000  0.52973123  0.27514384  1
  Pt  Pt1706  1  0.27514384  0.52973123  0.50000000  1
  Pt  Pt1707  1  0.66061154  0.35134388  0.56424462  1
  Pt  Pt1708  1  0.56424462  0.35134388  0.66061154  1
  Pt  Pt1709  1  0.66061154  0.35134388  0.43575539  1
  Pt  Pt1710  1  0.43575539  0.35134388  0.66061154  1
  Pt  Pt1711  1  0.66061154  0.64865613  0.43575539  1
  Pt  Pt1712  1  0.66061154  0.64865613  0.56424462  1
  Pt  Pt1713  1  0.56424462  0.64865613  0.66061154  1
  Pt  Pt1714  1  0.43575539  0.64865613  0.66061154  1
  Pt  Pt1715  1  0.56424462  0.35134388  0.33938845  1
  Pt  Pt1716  1  0.43575539  0.35134388  0.33938845  1
  Pt  Pt1717  1  0.33938845  0.35134388  0.43575539  1
  Pt  Pt1718  1  0.33938845  0.35134388  0.56424462  1
  Pt  Pt1719  1  0.56424462  0.64865613  0.33938845  1
  Pt  Pt1720  1  0.43575539  0.64865613  0.33938845  1
  Pt  Pt1721  1  0.33938845  0.64865613  0.43575539  1
  Pt  Pt1722  1  0.33938845  0.64865613  0.56424462  1
  Pt  Pt1723  1  0.59636692  0.29188143  0.50000000  1
  Pt  Pt1724  1  0.50000000  0.29188143  0.59636692  1
  Pt  Pt1725  1  0.40363307  0.29188143  0.50000000  1
  Pt  Pt1726  1  0.50000000  0.29188143  0.40363307  1
  Pt  Pt1727  1  0.59636692  0.70811858  0.50000000  1
  Pt  Pt1728  1  0.50000000  0.70811858  0.59636692  1
  Pt  Pt1729  1  0.50000000  0.70811858  0.40363307  1
  Pt  Pt1730  1  0.40363307  0.70811858  0.50000000  1
  Pt  Pt1731  1  0.69273385  0.41080633  0.59636692  1
  Pt  Pt1732  1  0.59636692  0.41080633  0.30726615  1
  Pt  Pt1733  1  0.59636692  0.41080633  0.69273385  1
  Pt  Pt1734  1  0.30726615  0.41080633  0.59636692  1
  Pt  Pt1735  1  0.69273385  0.58919368  0.59636692  1
  Pt  Pt1736  1  0.59636692  0.58919368  0.30726615  1
  Pt  Pt1737  1  0.59636692  0.58919368  0.69273385  1
  Pt  Pt1738  1  0.30726615  0.58919368  0.59636692  1
  Pt  Pt1739  1  0.69273385  0.41080633  0.40363307  1
  Pt  Pt1740  1  0.40363307  0.41080633  0.30726615  1
  Pt  Pt1741  1  0.30726615  0.41080633  0.40363307  1
  Pt  Pt1742  1  0.40363307  0.41080633  0.69273385  1
  Pt  Pt1743  1  0.69273385  0.58919368  0.40363307  1
  Pt  Pt1744  1  0.40363307  0.58919368  0.30726615  1
  Pt  Pt1745  1  0.30726615  0.58919368  0.40363307  1
  Pt  Pt1746  1  0.40363307  0.58919368  0.69273385  1
  Pt  Pt1747  1  0.56424462  0.47026878  0.72485615  1
  Pt  Pt1748  1  0.72485615  0.47026878  0.43575539  1
  Pt  Pt1749  1  0.72485615  0.47026878  0.56424462  1
  Pt  Pt1750  1  0.43575539  0.47026878  0.72485615  1
  Pt  Pt1751  1  0.56424462  0.52973123  0.72485615  1
  Pt  Pt1752  1  0.72485615  0.52973123  0.43575539  1
  Pt  Pt1753  1  0.43575539  0.52973123  0.72485615  1
  Pt  Pt1754  1  0.72485615  0.52973123  0.56424462  1
  Pt  Pt1755  1  0.56424462  0.47026878  0.27514384  1
  Pt  Pt1756  1  0.43575539  0.47026878  0.27514384  1
  Pt  Pt1757  1  0.27514384  0.47026878  0.43575539  1
  Pt  Pt1758  1  0.27514384  0.47026878  0.56424462  1
  Pt  Pt1759  1  0.56424462  0.52973123  0.27514384  1
  Pt  Pt1760  1  0.43575539  0.52973123  0.27514384  1
  Pt  Pt1761  1  0.27514384  0.52973123  0.43575539  1
  Pt  Pt1762  1  0.27514384  0.52973123  0.56424462  1
  Pt  Pt1763  1  0.59636692  0.29188143  0.43575539  1
  Pt  Pt1764  1  0.56424462  0.29188143  0.59636692  1
  Pt  Pt1765  1  0.59636692  0.29188143  0.56424462  1
  Pt  Pt1766  1  0.43575539  0.29188143  0.59636692  1
  Pt  Pt1767  1  0.56424462  0.29188143  0.40363307  1
  Pt  Pt1768  1  0.40363307  0.29188143  0.56424462  1
  Pt  Pt1769  1  0.40363307  0.29188143  0.43575539  1
  Pt  Pt1770  1  0.43575539  0.29188143  0.40363307  1
  Pt  Pt1771  1  0.59636692  0.70811858  0.43575539  1
  Pt  Pt1772  1  0.59636692  0.70811858  0.56424462  1
  Pt  Pt1773  1  0.56424462  0.70811858  0.59636692  1
  Pt  Pt1774  1  0.43575539  0.70811858  0.59636692  1
  Pt  Pt1775  1  0.56424462  0.70811858  0.40363307  1
  Pt  Pt1776  1  0.40363307  0.70811858  0.43575539  1
  Pt  Pt1777  1  0.43575539  0.70811858  0.40363307  1
  Pt  Pt1778  1  0.40363307  0.70811858  0.56424462  1
  Pt  Pt1779  1  0.72485615  0.41080633  0.50000000  1
  Pt  Pt1780  1  0.50000000  0.41080633  0.72485615  1
  Pt  Pt1781  1  0.72485615  0.58919368  0.50000000  1
  Pt  Pt1782  1  0.50000000  0.58919368  0.72485615  1
  Pt  Pt1783  1  0.50000000  0.41080633  0.27514384  1
  Pt  Pt1784  1  0.27514384  0.41080633  0.50000000  1
  Pt  Pt1785  1  0.50000000  0.58919368  0.27514384  1
  Pt  Pt1786  1  0.27514384  0.58919368  0.50000000  1
  Pt  Pt1787  1  0.69273385  0.35134388  0.53212230  1
  Pt  Pt1788  1  0.53212230  0.35134388  0.30726615  1
  Pt  Pt1789  1  0.30726615  0.35134388  0.53212230  1
  Pt  Pt1790  1  0.53212230  0.35134388  0.69273385  1
  Pt  Pt1791  1  0.69273385  0.35134388  0.46787769  1
  Pt  Pt1792  1  0.46787769  0.35134388  0.30726615  1
  Pt  Pt1793  1  0.30726615  0.35134388  0.46787769  1
  Pt  Pt1794  1  0.46787769  0.35134388  0.69273385  1
  Pt  Pt1795  1  0.53212230  0.64865613  0.30726615  1
  Pt  Pt1796  1  0.69273385  0.64865613  0.53212230  1
  Pt  Pt1797  1  0.53212230  0.64865613  0.69273385  1
  Pt  Pt1798  1  0.30726615  0.64865613  0.53212230  1
  Pt  Pt1799  1  0.69273385  0.64865613  0.46787769  1
  Pt  Pt1800  1  0.46787769  0.64865613  0.30726615  1
  Pt  Pt1801  1  0.30726615  0.64865613  0.46787769  1
  Pt  Pt1802  1  0.46787769  0.64865613  0.69273385  1
  Pt  Pt1803  1  0.53212230  0.29188143  0.62848924  1
  Pt  Pt1804  1  0.53212230  0.29188143  0.37151077  1
  Pt  Pt1805  1  0.62848924  0.29188143  0.53212230  1
  Pt  Pt1806  1  0.37151077  0.29188143  0.53212230  1
  Pt  Pt1807  1  0.46787769  0.29188143  0.62848924  1
  Pt  Pt1808  1  0.46787769  0.29188143  0.37151077  1
  Pt  Pt1809  1  0.62848924  0.29188143  0.46787769  1
  Pt  Pt1810  1  0.37151077  0.29188143  0.46787769  1
  Pt  Pt1811  1  0.53212230  0.70811858  0.62848924  1
  Pt  Pt1812  1  0.53212230  0.70811858  0.37151077  1
  Pt  Pt1813  1  0.62848924  0.70811858  0.53212230  1
  Pt  Pt1814  1  0.37151077  0.70811858  0.53212230  1
  Pt  Pt1815  1  0.46787769  0.70811858  0.62848924  1
  Pt  Pt1816  1  0.62848924  0.70811858  0.46787769  1
  Pt  Pt1817  1  0.46787769  0.70811858  0.37151077  1
  Pt  Pt1818  1  0.37151077  0.70811858  0.46787769  1
  Pt  Pt1819  1  0.56424462  0.41080633  0.72485615  1
  Pt  Pt1820  1  0.72485615  0.41080633  0.43575539  1
  Pt  Pt1821  1  0.72485615  0.41080633  0.56424462  1
  Pt  Pt1822  1  0.43575539  0.41080633  0.72485615  1
  Pt  Pt1823  1  0.56424462  0.58919368  0.72485615  1
  Pt  Pt1824  1  0.72485615  0.58919368  0.43575539  1
  Pt  Pt1825  1  0.72485615  0.58919368  0.56424462  1
  Pt  Pt1826  1  0.43575539  0.58919368  0.72485615  1
  Pt  Pt1827  1  0.56424462  0.41080633  0.27514384  1
  Pt  Pt1828  1  0.43575539  0.41080633  0.27514384  1
  Pt  Pt1829  1  0.27514384  0.41080633  0.56424462  1
  Pt  Pt1830  1  0.27514384  0.41080633  0.43575539  1
  Pt  Pt1831  1  0.56424462  0.58919368  0.27514384  1
  Pt  Pt1832  1  0.27514384  0.58919368  0.43575539  1
  Pt  Pt1833  1  0.43575539  0.58919368  0.27514384  1
  Pt  Pt1834  1  0.27514384  0.58919368  0.56424462  1
  Pt  Pt1835  1  0.69273385  0.47026878  0.66061154  1
  Pt  Pt1836  1  0.66061154  0.47026878  0.30726615  1
  Pt  Pt1837  1  0.30726615  0.47026878  0.66061154  1
  Pt  Pt1838  1  0.66061154  0.47026878  0.69273385  1
  Pt  Pt1839  1  0.66061154  0.52973123  0.30726615  1
  Pt  Pt1840  1  0.69273385  0.52973123  0.66061154  1
  Pt  Pt1841  1  0.66061154  0.52973123  0.69273385  1
  Pt  Pt1842  1  0.30726615  0.52973123  0.66061154  1
  Pt  Pt1843  1  0.69273385  0.47026878  0.33938845  1
  Pt  Pt1844  1  0.30726615  0.47026878  0.33938845  1
  Pt  Pt1845  1  0.33938845  0.47026878  0.30726615  1
  Pt  Pt1846  1  0.33938845  0.47026878  0.69273385  1
  Pt  Pt1847  1  0.69273385  0.52973123  0.33938845  1
  Pt  Pt1848  1  0.33938845  0.52973123  0.30726615  1
  Pt  Pt1849  1  0.30726615  0.52973123  0.33938845  1
  Pt  Pt1850  1  0.33938845  0.52973123  0.69273385  1
  Pt  Pt1851  1  0.66061154  0.35134388  0.62848924  1
  Pt  Pt1852  1  0.66061154  0.35134388  0.37151077  1
  Pt  Pt1853  1  0.62848924  0.35134388  0.66061154  1
  Pt  Pt1854  1  0.37151077  0.35134388  0.66061154  1
  Pt  Pt1855  1  0.66061154  0.64865613  0.37151077  1
  Pt  Pt1856  1  0.66061154  0.64865613  0.62848924  1
  Pt  Pt1857  1  0.62848924  0.64865613  0.66061154  1
  Pt  Pt1858  1  0.37151077  0.64865613  0.66061154  1
  Pt  Pt1859  1  0.33938845  0.35134388  0.62848924  1
  Pt  Pt1860  1  0.33938845  0.35134388  0.37151077  1
  Pt  Pt1861  1  0.62848924  0.35134388  0.33938845  1
  Pt  Pt1862  1  0.37151077  0.35134388  0.33938845  1
  Pt  Pt1863  1  0.33938845  0.64865613  0.62848924  1
  Pt  Pt1864  1  0.62848924  0.64865613  0.33938845  1
  Pt  Pt1865  1  0.37151077  0.64865613  0.33938845  1
  Pt  Pt1866  1  0.33938845  0.64865613  0.37151077  1
  Pt  Pt1867  1  0.72485615  0.47026878  0.62848924  1
  Pt  Pt1868  1  0.72485615  0.47026878  0.37151077  1
  Pt  Pt1869  1  0.62848924  0.47026878  0.72485615  1
  Pt  Pt1870  1  0.37151077  0.47026878  0.72485615  1
  Pt  Pt1871  1  0.72485615  0.52973123  0.37151077  1
  Pt  Pt1872  1  0.72485615  0.52973123  0.62848924  1
  Pt  Pt1873  1  0.62848924  0.52973123  0.72485615  1
  Pt  Pt1874  1  0.37151077  0.52973123  0.72485615  1
  Pt  Pt1875  1  0.53212230  0.47026878  0.75697847  1
  Pt  Pt1876  1  0.53212230  0.47026878  0.24302154  1
  Pt  Pt1877  1  0.24302154  0.47026878  0.53212230  1
  Pt  Pt1878  1  0.75697847  0.47026878  0.53212230  1
  Pt  Pt1879  1  0.53212230  0.52973123  0.75697847  1
  Pt  Pt1880  1  0.53212230  0.52973123  0.24302154  1
  Pt  Pt1881  1  0.24302154  0.52973123  0.53212230  1
  Pt  Pt1882  1  0.75697847  0.52973123  0.53212230  1
  Pt  Pt1883  1  0.46787769  0.47026878  0.75697847  1
  Pt  Pt1884  1  0.46787769  0.47026878  0.24302154  1
  Pt  Pt1885  1  0.75697847  0.47026878  0.46787769  1
  Pt  Pt1886  1  0.24302154  0.47026878  0.46787769  1
  Pt  Pt1887  1  0.46787769  0.52973123  0.75697847  1
  Pt  Pt1888  1  0.46787769  0.52973123  0.24302154  1
  Pt  Pt1889  1  0.75697847  0.52973123  0.46787769  1
  Pt  Pt1890  1  0.24302154  0.52973123  0.46787769  1
  Pt  Pt1891  1  0.37151077  0.47026878  0.27514384  1
  Pt  Pt1892  1  0.27514384  0.47026878  0.62848924  1
  Pt  Pt1893  1  0.62848924  0.47026878  0.27514384  1
  Pt  Pt1894  1  0.27514384  0.47026878  0.37151077  1
  Pt  Pt1895  1  0.62848924  0.52973123  0.27514384  1
  Pt  Pt1896  1  0.27514384  0.52973123  0.62848924  1
  Pt  Pt1897  1  0.27514384  0.52973123  0.37151077  1
  Pt  Pt1898  1  0.37151077  0.52973123  0.27514384  1
  Pt  Pt1899  1  0.69273385  0.35134388  0.59636692  1
  Pt  Pt1900  1  0.59636692  0.35134388  0.30726615  1
  Pt  Pt1901  1  0.59636692  0.35134388  0.69273385  1
  Pt  Pt1902  1  0.30726615  0.35134388  0.59636692  1
  Pt  Pt1903  1  0.69273385  0.35134388  0.40363307  1
  Pt  Pt1904  1  0.40363307  0.35134388  0.30726615  1
  Pt  Pt1905  1  0.30726615  0.35134388  0.40363307  1
  Pt  Pt1906  1  0.40363307  0.35134388  0.69273385  1
  Pt  Pt1907  1  0.59636692  0.64865613  0.30726615  1
  Pt  Pt1908  1  0.69273385  0.64865613  0.59636692  1
  Pt  Pt1909  1  0.59636692  0.64865613  0.69273385  1
  Pt  Pt1910  1  0.30726615  0.64865613  0.59636692  1
  Pt  Pt1911  1  0.69273385  0.64865613  0.40363307  1
  Pt  Pt1912  1  0.30726615  0.64865613  0.40363307  1
  Pt  Pt1913  1  0.40363307  0.64865613  0.30726615  1
  Pt  Pt1914  1  0.40363307  0.64865613  0.69273385  1
  Pt  Pt1915  1  0.50000000  0.29188143  0.66061154  1
  Pt  Pt1916  1  0.66061154  0.29188143  0.50000000  1
  Pt  Pt1917  1  0.59636692  0.29188143  0.62848924  1
  Pt  Pt1918  1  0.59636692  0.29188143  0.37151077  1
  Pt  Pt1919  1  0.62848924  0.29188143  0.59636692  1
  Pt  Pt1920  1  0.37151077  0.29188143  0.59636692  1
  Pt  Pt1921  1  0.40363307  0.29188143  0.62848924  1
  Pt  Pt1922  1  0.62848924  0.29188143  0.40363307  1
  Pt  Pt1923  1  0.37151077  0.29188143  0.40363307  1
  Pt  Pt1924  1  0.40363307  0.29188143  0.37151077  1
  Pt  Pt1925  1  0.33938845  0.29188143  0.50000000  1
  Pt  Pt1926  1  0.50000000  0.29188143  0.33938845  1
  Pt  Pt1927  1  0.66061154  0.70811858  0.50000000  1
  Pt  Pt1928  1  0.50000000  0.70811858  0.66061154  1
  Pt  Pt1929  1  0.59636692  0.70811858  0.37151077  1
  Pt  Pt1930  1  0.59636692  0.70811858  0.62848924  1
  Pt  Pt1931  1  0.62848924  0.70811858  0.59636692  1
  Pt  Pt1932  1  0.37151077  0.70811858  0.59636692  1
  Pt  Pt1933  1  0.62848924  0.70811858  0.40363307  1
  Pt  Pt1934  1  0.40363307  0.70811858  0.62848924  1
  Pt  Pt1935  1  0.40363307  0.70811858  0.37151077  1
  Pt  Pt1936  1  0.37151077  0.70811858  0.40363307  1
  Pt  Pt1937  1  0.50000000  0.70811858  0.33938845  1
  Pt  Pt1938  1  0.33938845  0.70811858  0.50000000  1
  Pt  Pt1939  1  0.69273385  0.41080633  0.66061154  1
  Pt  Pt1940  1  0.66061154  0.41080633  0.30726615  1
  Pt  Pt1941  1  0.30726615  0.41080633  0.66061154  1
  Pt  Pt1942  1  0.66061154  0.41080633  0.69273385  1
  Pt  Pt1943  1  0.66061154  0.58919368  0.30726615  1
  Pt  Pt1944  1  0.66061154  0.58919368  0.69273385  1
  Pt  Pt1945  1  0.69273385  0.58919368  0.66061154  1
  Pt  Pt1946  1  0.30726615  0.58919368  0.66061154  1
  Pt  Pt1947  1  0.69273385  0.41080633  0.33938845  1
  Pt  Pt1948  1  0.33938845  0.41080633  0.30726615  1
  Pt  Pt1949  1  0.33938845  0.41080633  0.69273385  1
  Pt  Pt1950  1  0.30726615  0.41080633  0.33938845  1
  Pt  Pt1951  1  0.69273385  0.58919368  0.33938845  1
  Pt  Pt1952  1  0.33938845  0.58919368  0.30726615  1
  Pt  Pt1953  1  0.30726615  0.58919368  0.33938845  1
  Pt  Pt1954  1  0.33938845  0.58919368  0.69273385  1
  Pt  Pt1955  1  0.53212230  0.23241898  0.50000000  1
  Pt  Pt1956  1  0.50000000  0.23241898  0.53212230  1
  Pt  Pt1957  1  0.46787769  0.23241898  0.50000000  1
  Pt  Pt1958  1  0.50000000  0.23241898  0.46787769  1
  Pt  Pt1959  1  0.53212230  0.76758103  0.50000000  1
  Pt  Pt1960  1  0.50000000  0.76758103  0.53212230  1
  Pt  Pt1961  1  0.50000000  0.76758103  0.46787769  1
  Pt  Pt1962  1  0.46787769  0.76758103  0.50000000  1
  Pt  Pt1963  1  0.72485615  0.35134388  0.50000000  1
  Pt  Pt1964  1  0.50000000  0.35134388  0.72485615  1
  Pt  Pt1965  1  0.50000000  0.64865613  0.72485615  1
  Pt  Pt1966  1  0.72485615  0.64865613  0.50000000  1
  Pt  Pt1967  1  0.50000000  0.35134388  0.27514384  1
  Pt  Pt1968  1  0.27514384  0.35134388  0.50000000  1
  Pt  Pt1969  1  0.50000000  0.64865613  0.27514384  1
  Pt  Pt1970  1  0.27514384  0.64865613  0.50000000  1
  Pt  Pt1971  1  0.56424462  0.29188143  0.66061154  1
  Pt  Pt1972  1  0.66061154  0.29188143  0.56424462  1
  Pt  Pt1973  1  0.66061154  0.29188143  0.43575539  1
  Pt  Pt1974  1  0.43575539  0.29188143  0.66061154  1
  Pt  Pt1975  1  0.56424462  0.29188143  0.33938845  1
  Pt  Pt1976  1  0.33938845  0.29188143  0.56424462  1
  Pt  Pt1977  1  0.33938845  0.29188143  0.43575539  1
  Pt  Pt1978  1  0.43575539  0.29188143  0.33938845  1
  Pt  Pt1979  1  0.66061154  0.70811858  0.43575539  1
  Pt  Pt1980  1  0.66061154  0.70811858  0.56424462  1
  Pt  Pt1981  1  0.43575539  0.70811858  0.66061154  1
  Pt  Pt1982  1  0.56424462  0.70811858  0.66061154  1
  Pt  Pt1983  1  0.56424462  0.70811858  0.33938845  1
  Pt  Pt1984  1  0.43575539  0.70811858  0.33938845  1
  Pt  Pt1985  1  0.33938845  0.70811858  0.56424462  1
  Pt  Pt1986  1  0.33938845  0.70811858  0.43575539  1
  Pt  Pt1987  1  0.72485615  0.41080633  0.62848924  1
  Pt  Pt1988  1  0.62848924  0.41080633  0.72485615  1
  Pt  Pt1989  1  0.72485615  0.41080633  0.37151077  1
  Pt  Pt1990  1  0.37151077  0.41080633  0.72485615  1
  Pt  Pt1991  1  0.72485615  0.58919368  0.37151077  1
  Pt  Pt1992  1  0.72485615  0.58919368  0.62848924  1
  Pt  Pt1993  1  0.62848924  0.58919368  0.72485615  1
  Pt  Pt1994  1  0.37151077  0.58919368  0.72485615  1
  Pt  Pt1995  1  0.53212230  0.41080633  0.75697847  1
  Pt  Pt1996  1  0.53212230  0.41080633  0.24302154  1
  Pt  Pt1997  1  0.75697847  0.41080633  0.53212230  1
  Pt  Pt1998  1  0.24302154  0.41080633  0.53212230  1
  Pt  Pt1999  1  0.46787769  0.41080633  0.75697847  1
  Pt  Pt2000  1  0.75697847  0.41080633  0.46787769  1
  Pt  Pt2001  1  0.46787769  0.41080633  0.24302154  1
  Pt  Pt2002  1  0.24302154  0.41080633  0.46787769  1
  Pt  Pt2003  1  0.53212230  0.58919368  0.24302154  1
  Pt  Pt2004  1  0.53212230  0.58919368  0.75697847  1
  Pt  Pt2005  1  0.75697847  0.58919368  0.53212230  1
  Pt  Pt2006  1  0.24302154  0.58919368  0.53212230  1
  Pt  Pt2007  1  0.46787769  0.58919368  0.75697847  1
  Pt  Pt2008  1  0.46787769  0.58919368  0.24302154  1
  Pt  Pt2009  1  0.75697847  0.58919368  0.46787769  1
  Pt  Pt2010  1  0.24302154  0.58919368  0.46787769  1
  Pt  Pt2011  1  0.37151077  0.41080633  0.27514384  1
  Pt  Pt2012  1  0.27514384  0.41080633  0.62848924  1
  Pt  Pt2013  1  0.62848924  0.41080633  0.27514384  1
  Pt  Pt2014  1  0.27514384  0.41080633  0.37151077  1
  Pt  Pt2015  1  0.37151077  0.58919368  0.27514384  1
  Pt  Pt2016  1  0.27514384  0.58919368  0.37151077  1
  Pt  Pt2017  1  0.27514384  0.58919368  0.62848924  1
  Pt  Pt2018  1  0.62848924  0.58919368  0.27514384  1
  Pt  Pt2019  1  0.59636692  0.47026878  0.75697847  1
  Pt  Pt2020  1  0.59636692  0.47026878  0.24302154  1
  Pt  Pt2021  1  0.75697847  0.47026878  0.59636692  1
  Pt  Pt2022  1  0.24302154  0.47026878  0.59636692  1
  Pt  Pt2023  1  0.59636692  0.52973123  0.24302154  1
  Pt  Pt2024  1  0.75697847  0.52973123  0.59636692  1
  Pt  Pt2025  1  0.59636692  0.52973123  0.75697847  1
  Pt  Pt2026  1  0.24302154  0.52973123  0.59636692  1
  Pt  Pt2027  1  0.40363307  0.47026878  0.75697847  1
  Pt  Pt2028  1  0.75697847  0.47026878  0.40363307  1
  Pt  Pt2029  1  0.40363307  0.47026878  0.24302154  1
  Pt  Pt2030  1  0.24302154  0.47026878  0.40363307  1
  Pt  Pt2031  1  0.40363307  0.52973123  0.75697847  1
  Pt  Pt2032  1  0.75697847  0.52973123  0.40363307  1
  Pt  Pt2033  1  0.40363307  0.52973123  0.24302154  1
  Pt  Pt2034  1  0.24302154  0.52973123  0.40363307  1
  Pt  Pt2035  1  0.53212230  0.23241898  0.56424462  1
  Pt  Pt2036  1  0.53212230  0.23241898  0.43575539  1
  Pt  Pt2037  1  0.43575539  0.23241898  0.53212230  1
  Pt  Pt2038  1  0.56424462  0.23241898  0.53212230  1
  Pt  Pt2039  1  0.43575539  0.23241898  0.46787769  1
  Pt  Pt2040  1  0.56424462  0.23241898  0.46787769  1
  Pt  Pt2041  1  0.46787769  0.23241898  0.43575539  1
  Pt  Pt2042  1  0.46787769  0.23241898  0.56424462  1
  Pt  Pt2043  1  0.53212230  0.76758103  0.43575539  1
  Pt  Pt2044  1  0.53212230  0.76758103  0.56424462  1
  Pt  Pt2045  1  0.56424462  0.76758103  0.53212230  1
  Pt  Pt2046  1  0.43575539  0.76758103  0.53212230  1
  Pt  Pt2047  1  0.46787769  0.76758103  0.43575539  1
  Pt  Pt2048  1  0.43575539  0.76758103  0.46787769  1
  Pt  Pt2049  1  0.56424462  0.76758103  0.46787769  1
  Pt  Pt2050  1  0.46787769  0.76758103  0.56424462  1
  Pt  Pt2051  1  0.72485615  0.35134388  0.43575539  1
  Pt  Pt2052  1  0.56424462  0.35134388  0.72485615  1
  Pt  Pt2053  1  0.72485615  0.35134388  0.56424462  1
  Pt  Pt2054  1  0.43575539  0.35134388  0.72485615  1
  Pt  Pt2055  1  0.56424462  0.64865613  0.72485615  1
  Pt  Pt2056  1  0.72485615  0.64865613  0.43575539  1
  Pt  Pt2057  1  0.43575539  0.64865613  0.72485615  1
  Pt  Pt2058  1  0.72485615  0.64865613  0.56424462  1
  Pt  Pt2059  1  0.43575539  0.35134388  0.27514384  1
  Pt  Pt2060  1  0.56424462  0.35134388  0.27514384  1
  Pt  Pt2061  1  0.27514384  0.35134388  0.56424462  1
  Pt  Pt2062  1  0.27514384  0.35134388  0.43575539  1
  Pt  Pt2063  1  0.56424462  0.64865613  0.27514384  1
  Pt  Pt2064  1  0.27514384  0.64865613  0.43575539  1
  Pt  Pt2065  1  0.27514384  0.64865613  0.56424462  1
  Pt  Pt2066  1  0.43575539  0.64865613  0.27514384  1
  Pt  Pt2067  1  0.59636692  0.23241898  0.50000000  1
  Pt  Pt2068  1  0.50000000  0.23241898  0.59636692  1
  Pt  Pt2069  1  0.50000000  0.23241898  0.40363307  1
  Pt  Pt2070  1  0.40363307  0.23241898  0.50000000  1
  Pt  Pt2071  1  0.50000000  0.76758103  0.59636692  1
  Pt  Pt2072  1  0.59636692  0.76758103  0.50000000  1
  Pt  Pt2073  1  0.50000000  0.76758103  0.40363307  1
  Pt  Pt2074  1  0.40363307  0.76758103  0.50000000  1
  Pt  Pt2075  1  0.69273385  0.29188143  0.53212230  1
  Pt  Pt2076  1  0.53212230  0.29188143  0.30726615  1
  Pt  Pt2077  1  0.30726615  0.29188143  0.53212230  1
  Pt  Pt2078  1  0.53212230  0.29188143  0.69273385  1
  Pt  Pt2079  1  0.69273385  0.29188143  0.46787769  1
  Pt  Pt2080  1  0.46787769  0.29188143  0.69273385  1
  Pt  Pt2081  1  0.30726615  0.29188143  0.46787769  1
  Pt  Pt2082  1  0.46787769  0.29188143  0.30726615  1
  Pt  Pt2083  1  0.53212230  0.70811858  0.30726615  1
  Pt  Pt2084  1  0.69273385  0.70811858  0.53212230  1
  Pt  Pt2085  1  0.53212230  0.70811858  0.69273385  1
  Pt  Pt2086  1  0.30726615  0.70811858  0.53212230  1
  Pt  Pt2087  1  0.69273385  0.70811858  0.46787769  1
  Pt  Pt2088  1  0.46787769  0.70811858  0.30726615  1
  Pt  Pt2089  1  0.46787769  0.70811858  0.69273385  1
  Pt  Pt2090  1  0.30726615  0.70811858  0.46787769  1
  Pt  Pt2091  1  0.59636692  0.41080633  0.75697847  1
  Pt  Pt2092  1  0.59636692  0.41080633  0.24302154  1
  Pt  Pt2093  1  0.75697847  0.41080633  0.59636692  1
  Pt  Pt2094  1  0.24302154  0.41080633  0.59636692  1
  Pt  Pt2095  1  0.59636692  0.58919368  0.24302154  1
  Pt  Pt2096  1  0.59636692  0.58919368  0.75697847  1
  Pt  Pt2097  1  0.75697847  0.58919368  0.59636692  1
  Pt  Pt2098  1  0.24302154  0.58919368  0.59636692  1
  Pt  Pt2099  1  0.40363307  0.41080633  0.75697847  1
  Pt  Pt2100  1  0.75697847  0.41080633  0.40363307  1
  Pt  Pt2101  1  0.40363307  0.41080633  0.24302154  1
  Pt  Pt2102  1  0.24302154  0.41080633  0.40363307  1
  Pt  Pt2103  1  0.40363307  0.58919368  0.75697847  1
  Pt  Pt2104  1  0.75697847  0.58919368  0.40363307  1
  Pt  Pt2105  1  0.40363307  0.58919368  0.24302154  1
  Pt  Pt2106  1  0.24302154  0.58919368  0.40363307  1
  Pt  Pt2107  1  0.78910077  0.47026878  0.50000000  1
  Pt  Pt2108  1  0.50000000  0.47026878  0.78910077  1
  Pt  Pt2109  1  0.78910077  0.52973123  0.50000000  1
  Pt  Pt2110  1  0.50000000  0.52973123  0.78910077  1
  Pt  Pt2111  1  0.50000000  0.47026878  0.21089922  1
  Pt  Pt2112  1  0.21089922  0.47026878  0.50000000  1
  Pt  Pt2113  1  0.21089922  0.52973123  0.50000000  1
  Pt  Pt2114  1  0.50000000  0.52973123  0.21089922  1
  Pt  Pt2115  1  0.59636692  0.23241898  0.43575539  1
  Pt  Pt2116  1  0.59636692  0.23241898  0.56424462  1
  Pt  Pt2117  1  0.56424462  0.23241898  0.59636692  1
  Pt  Pt2118  1  0.43575539  0.23241898  0.59636692  1
  Pt  Pt2119  1  0.56424462  0.23241898  0.40363307  1
  Pt  Pt2120  1  0.43575539  0.23241898  0.40363307  1
  Pt  Pt2121  1  0.40363307  0.23241898  0.56424462  1
  Pt  Pt2122  1  0.40363307  0.23241898  0.43575539  1
  Pt  Pt2123  1  0.59636692  0.76758103  0.43575539  1
  Pt  Pt2124  1  0.59636692  0.76758103  0.56424462  1
  Pt  Pt2125  1  0.56424462  0.76758103  0.59636692  1
  Pt  Pt2126  1  0.43575539  0.76758103  0.59636692  1
  Pt  Pt2127  1  0.43575539  0.76758103  0.40363307  1
  Pt  Pt2128  1  0.56424462  0.76758103  0.40363307  1
  Pt  Pt2129  1  0.40363307  0.76758103  0.43575539  1
  Pt  Pt2130  1  0.40363307  0.76758103  0.56424462  1
  Pt  Pt2131  1  0.69273385  0.35134388  0.66061154  1
  Pt  Pt2132  1  0.66061154  0.35134388  0.30726615  1
  Pt  Pt2133  1  0.30726615  0.35134388  0.66061154  1
  Pt  Pt2134  1  0.66061154  0.35134388  0.69273385  1
  Pt  Pt2135  1  0.66061154  0.64865613  0.30726615  1
  Pt  Pt2136  1  0.69273385  0.64865613  0.66061154  1
  Pt  Pt2137  1  0.66061154  0.64865613  0.69273385  1
  Pt  Pt2138  1  0.30726615  0.64865613  0.66061154  1
  Pt  Pt2139  1  0.69273385  0.35134388  0.33938845  1
  Pt  Pt2140  1  0.33938845  0.35134388  0.30726615  1
  Pt  Pt2141  1  0.30726615  0.35134388  0.33938845  1
  Pt  Pt2142  1  0.33938845  0.35134388  0.69273385  1
  Pt  Pt2143  1  0.69273385  0.64865613  0.33938845  1
  Pt  Pt2144  1  0.33938845  0.64865613  0.69273385  1
  Pt  Pt2145  1  0.33938845  0.64865613  0.30726615  1
  Pt  Pt2146  1  0.30726615  0.64865613  0.33938845  1
  Pt  Pt2147  1  0.66061154  0.29188143  0.62848924  1
  Pt  Pt2148  1  0.66061154  0.29188143  0.37151077  1
  Pt  Pt2149  1  0.62848924  0.29188143  0.66061154  1
  Pt  Pt2150  1  0.37151077  0.29188143  0.66061154  1
  Pt  Pt2151  1  0.33938845  0.29188143  0.37151077  1
  Pt  Pt2152  1  0.37151077  0.29188143  0.33938845  1
  Pt  Pt2153  1  0.33938845  0.29188143  0.62848924  1
  Pt  Pt2154  1  0.62848924  0.29188143  0.33938845  1
  Pt  Pt2155  1  0.66061154  0.70811858  0.37151077  1
  Pt  Pt2156  1  0.66061154  0.70811858  0.62848924  1
  Pt  Pt2157  1  0.62848924  0.70811858  0.66061154  1
  Pt  Pt2158  1  0.37151077  0.70811858  0.66061154  1
  Pt  Pt2159  1  0.62848924  0.70811858  0.33938845  1
  Pt  Pt2160  1  0.33938845  0.70811858  0.62848924  1
  Pt  Pt2161  1  0.33938845  0.70811858  0.37151077  1
  Pt  Pt2162  1  0.37151077  0.70811858  0.33938845  1
  Pt  Pt2163  1  0.78910077  0.47026878  0.43575539  1
  Pt  Pt2164  1  0.78910077  0.47026878  0.56424462  1
  Pt  Pt2165  1  0.56424462  0.47026878  0.78910077  1
  Pt  Pt2166  1  0.43575539  0.47026878  0.78910077  1
  Pt  Pt2167  1  0.78910077  0.52973123  0.43575539  1
  Pt  Pt2168  1  0.78910077  0.52973123  0.56424462  1
  Pt  Pt2169  1  0.56424462  0.52973123  0.78910077  1
  Pt  Pt2170  1  0.43575539  0.52973123  0.78910077  1
  Pt  Pt2171  1  0.69273385  0.47026878  0.72485615  1
  Pt  Pt2172  1  0.72485615  0.47026878  0.69273385  1
  Pt  Pt2173  1  0.72485615  0.47026878  0.30726615  1
  Pt  Pt2174  1  0.30726615  0.47026878  0.72485615  1
  Pt  Pt2175  1  0.72485615  0.52973123  0.30726615  1
  Pt  Pt2176  1  0.69273385  0.52973123  0.72485615  1
  Pt  Pt2177  1  0.72485615  0.52973123  0.69273385  1
  Pt  Pt2178  1  0.30726615  0.52973123  0.72485615  1
  Pt  Pt2179  1  0.69273385  0.47026878  0.27514384  1
  Pt  Pt2180  1  0.30726615  0.47026878  0.27514384  1
  Pt  Pt2181  1  0.27514384  0.47026878  0.30726615  1
  Pt  Pt2182  1  0.27514384  0.47026878  0.69273385  1
  Pt  Pt2183  1  0.69273385  0.52973123  0.27514384  1
  Pt  Pt2184  1  0.30726615  0.52973123  0.27514384  1
  Pt  Pt2185  1  0.27514384  0.52973123  0.30726615  1
  Pt  Pt2186  1  0.27514384  0.52973123  0.69273385  1
  Pt  Pt2187  1  0.56424462  0.47026878  0.21089922  1
  Pt  Pt2188  1  0.21089922  0.47026878  0.43575539  1
  Pt  Pt2189  1  0.43575539  0.47026878  0.21089922  1
  Pt  Pt2190  1  0.21089922  0.47026878  0.56424462  1
  Pt  Pt2191  1  0.43575539  0.52973123  0.21089922  1
  Pt  Pt2192  1  0.56424462  0.52973123  0.21089922  1
  Pt  Pt2193  1  0.21089922  0.52973123  0.43575539  1
  Pt  Pt2194  1  0.21089922  0.52973123  0.56424462  1
  Pt  Pt2195  1  0.53212230  0.23241898  0.37151077  1
  Pt  Pt2196  1  0.53212230  0.23241898  0.62848924  1
  Pt  Pt2197  1  0.37151077  0.23241898  0.53212230  1
  Pt  Pt2198  1  0.62848924  0.23241898  0.53212230  1
  Pt  Pt2199  1  0.37151077  0.23241898  0.46787769  1
  Pt  Pt2200  1  0.62848924  0.23241898  0.46787769  1
  Pt  Pt2201  1  0.46787769  0.23241898  0.37151077  1
  Pt  Pt2202  1  0.46787769  0.23241898  0.62848924  1
  Pt  Pt2203  1  0.53212230  0.76758103  0.37151077  1
  Pt  Pt2204  1  0.53212230  0.76758103  0.62848924  1
  Pt  Pt2205  1  0.62848924  0.76758103  0.53212230  1
  Pt  Pt2206  1  0.37151077  0.76758103  0.53212230  1
  Pt  Pt2207  1  0.46787769  0.76758103  0.37151077  1
  Pt  Pt2208  1  0.46787769  0.76758103  0.62848924  1
  Pt  Pt2209  1  0.62848924  0.76758103  0.46787769  1
  Pt  Pt2210  1  0.37151077  0.76758103  0.46787769  1
  Pt  Pt2211  1  0.72485615  0.35134388  0.62848924  1
  Pt  Pt2212  1  0.62848924  0.35134388  0.72485615  1
  Pt  Pt2213  1  0.72485615  0.35134388  0.37151077  1
  Pt  Pt2214  1  0.37151077  0.35134388  0.72485615  1
  Pt  Pt2215  1  0.53212230  0.35134388  0.75697847  1
  Pt  Pt2216  1  0.53212230  0.35134388  0.24302154  1
  Pt  Pt2217  1  0.75697847  0.35134388  0.53212230  1
  Pt  Pt2218  1  0.24302154  0.35134388  0.53212230  1
  Pt  Pt2219  1  0.46787769  0.35134388  0.75697847  1
  Pt  Pt2220  1  0.46787769  0.35134388  0.24302154  1
  Pt  Pt2221  1  0.75697847  0.35134388  0.46787769  1
  Pt  Pt2222  1  0.24302154  0.35134388  0.46787769  1
  Pt  Pt2223  1  0.72485615  0.64865613  0.37151077  1
  Pt  Pt2224  1  0.62848924  0.64865613  0.72485615  1
  Pt  Pt2225  1  0.72485615  0.64865613  0.62848924  1
  Pt  Pt2226  1  0.37151077  0.64865613  0.72485615  1
  Pt  Pt2227  1  0.62848924  0.35134388  0.27514384  1
  Pt  Pt2228  1  0.37151077  0.35134388  0.27514384  1
  Pt  Pt2229  1  0.27514384  0.35134388  0.62848924  1
  Pt  Pt2230  1  0.27514384  0.35134388  0.37151077  1
  Pt  Pt2231  1  0.53212230  0.64865613  0.24302154  1
  Pt  Pt2232  1  0.75697847  0.64865613  0.53212230  1
  Pt  Pt2233  1  0.53212230  0.64865613  0.75697847  1
  Pt  Pt2234  1  0.24302154  0.64865613  0.53212230  1
  Pt  Pt2235  1  0.46787769  0.64865613  0.24302154  1
  Pt  Pt2236  1  0.46787769  0.64865613  0.75697847  1
  Pt  Pt2237  1  0.75697847  0.64865613  0.46787769  1
  Pt  Pt2238  1  0.24302154  0.64865613  0.46787769  1
  Pt  Pt2239  1  0.62848924  0.64865613  0.27514384  1
  Pt  Pt2240  1  0.27514384  0.64865613  0.62848924  1
  Pt  Pt2241  1  0.37151077  0.64865613  0.27514384  1
  Pt  Pt2242  1  0.27514384  0.64865613  0.37151077  1
  Pt  Pt2243  1  0.69273385  0.29188143  0.59636692  1
  Pt  Pt2244  1  0.59636692  0.29188143  0.30726615  1
  Pt  Pt2245  1  0.59636692  0.29188143  0.69273385  1
  Pt  Pt2246  1  0.30726615  0.29188143  0.59636692  1
  Pt  Pt2247  1  0.69273385  0.29188143  0.40363307  1
  Pt  Pt2248  1  0.30726615  0.29188143  0.40363307  1
  Pt  Pt2249  1  0.40363307  0.29188143  0.30726615  1
  Pt  Pt2250  1  0.40363307  0.29188143  0.69273385  1
  Pt  Pt2251  1  0.59636692  0.70811858  0.30726615  1
  Pt  Pt2252  1  0.69273385  0.70811858  0.59636692  1
  Pt  Pt2253  1  0.59636692  0.70811858  0.69273385  1
  Pt  Pt2254  1  0.30726615  0.70811858  0.59636692  1
  Pt  Pt2255  1  0.69273385  0.70811858  0.40363307  1
  Pt  Pt2256  1  0.30726615  0.70811858  0.40363307  1
  Pt  Pt2257  1  0.40363307  0.70811858  0.30726615  1
  Pt  Pt2258  1  0.40363307  0.70811858  0.69273385  1
  Pt  Pt2259  1  0.78910077  0.41080633  0.50000000  1
  Pt  Pt2260  1  0.50000000  0.41080633  0.78910077  1
  Pt  Pt2261  1  0.78910077  0.58919368  0.50000000  1
  Pt  Pt2262  1  0.50000000  0.58919368  0.78910077  1
  Pt  Pt2263  1  0.21089922  0.41080633  0.50000000  1
  Pt  Pt2264  1  0.50000000  0.41080633  0.21089922  1
  Pt  Pt2265  1  0.50000000  0.58919368  0.21089922  1
  Pt  Pt2266  1  0.21089922  0.58919368  0.50000000  1
  Pt  Pt2267  1  0.66061154  0.47026878  0.24302154  1
  Pt  Pt2268  1  0.66061154  0.47026878  0.75697847  1
  Pt  Pt2269  1  0.24302154  0.47026878  0.66061154  1
  Pt  Pt2270  1  0.75697847  0.47026878  0.66061154  1
  Pt  Pt2271  1  0.66061154  0.52973123  0.24302154  1
  Pt  Pt2272  1  0.66061154  0.52973123  0.75697847  1
  Pt  Pt2273  1  0.24302154  0.52973123  0.66061154  1
  Pt  Pt2274  1  0.75697847  0.52973123  0.66061154  1
  Pt  Pt2275  1  0.33938845  0.47026878  0.75697847  1
  Pt  Pt2276  1  0.75697847  0.47026878  0.33938845  1
  Pt  Pt2277  1  0.24302154  0.47026878  0.33938845  1
  Pt  Pt2278  1  0.33938845  0.47026878  0.24302154  1
  Pt  Pt2279  1  0.75697847  0.52973123  0.33938845  1
  Pt  Pt2280  1  0.33938845  0.52973123  0.75697847  1
  Pt  Pt2281  1  0.33938845  0.52973123  0.24302154  1
  Pt  Pt2282  1  0.24302154  0.52973123  0.33938845  1
  Pt  Pt2283  1  0.72485615  0.29188143  0.50000000  1
  Pt  Pt2284  1  0.50000000  0.29188143  0.72485615  1
  Pt  Pt2285  1  0.50000000  0.70811858  0.72485615  1
  Pt  Pt2286  1  0.72485615  0.70811858  0.50000000  1
  Pt  Pt2287  1  0.50000000  0.29188143  0.27514384  1
  Pt  Pt2288  1  0.27514384  0.29188143  0.50000000  1
  Pt  Pt2289  1  0.50000000  0.70811858  0.27514384  1
  Pt  Pt2290  1  0.27514384  0.70811858  0.50000000  1
  Pt  Pt2291  1  0.78910077  0.41080633  0.43575539  1
  Pt  Pt2292  1  0.78910077  0.41080633  0.56424462  1
  Pt  Pt2293  1  0.56424462  0.41080633  0.78910077  1
  Pt  Pt2294  1  0.43575539  0.41080633  0.78910077  1
  Pt  Pt2295  1  0.69273385  0.41080633  0.72485615  1
  Pt  Pt2296  1  0.72485615  0.41080633  0.30726615  1
  Pt  Pt2297  1  0.72485615  0.41080633  0.69273385  1
  Pt  Pt2298  1  0.30726615  0.41080633  0.72485615  1
  Pt  Pt2299  1  0.78910077  0.58919368  0.43575539  1
  Pt  Pt2300  1  0.78910077  0.58919368  0.56424462  1
  Pt  Pt2301  1  0.43575539  0.58919368  0.78910077  1
  Pt  Pt2302  1  0.56424462  0.58919368  0.78910077  1
  Pt  Pt2303  1  0.69273385  0.58919368  0.72485615  1
  Pt  Pt2304  1  0.72485615  0.58919368  0.69273385  1
  Pt  Pt2305  1  0.72485615  0.58919368  0.30726615  1
  Pt  Pt2306  1  0.30726615  0.58919368  0.72485615  1
  Pt  Pt2307  1  0.69273385  0.41080633  0.27514384  1
  Pt  Pt2308  1  0.27514384  0.41080633  0.30726615  1
  Pt  Pt2309  1  0.30726615  0.41080633  0.27514384  1
  Pt  Pt2310  1  0.27514384  0.41080633  0.69273385  1
  Pt  Pt2311  1  0.56424462  0.41080633  0.21089922  1
  Pt  Pt2312  1  0.43575539  0.41080633  0.21089922  1
  Pt  Pt2313  1  0.21089922  0.41080633  0.56424462  1
  Pt  Pt2314  1  0.21089922  0.41080633  0.43575539  1
  Pt  Pt2315  1  0.69273385  0.58919368  0.27514384  1
  Pt  Pt2316  1  0.27514384  0.58919368  0.30726615  1
  Pt  Pt2317  1  0.30726615  0.58919368  0.27514384  1
  Pt  Pt2318  1  0.27514384  0.58919368  0.69273385  1
  Pt  Pt2319  1  0.56424462  0.58919368  0.21089922  1
  Pt  Pt2320  1  0.43575539  0.58919368  0.21089922  1
  Pt  Pt2321  1  0.21089922  0.58919368  0.43575539  1
  Pt  Pt2322  1  0.21089922  0.58919368  0.56424462  1
  Pt  Pt2323  1  0.50000000  0.23241898  0.66061154  1
  Pt  Pt2324  1  0.66061154  0.23241898  0.50000000  1
  Pt  Pt2325  1  0.59636692  0.23241898  0.62848924  1
  Pt  Pt2326  1  0.59636692  0.23241898  0.37151077  1
  Pt  Pt2327  1  0.37151077  0.23241898  0.59636692  1
  Pt  Pt2328  1  0.62848924  0.23241898  0.59636692  1
  Pt  Pt2329  1  0.62848924  0.23241898  0.40363307  1
  Pt  Pt2330  1  0.37151077  0.23241898  0.40363307  1
  Pt  Pt2331  1  0.40363307  0.23241898  0.62848924  1
  Pt  Pt2332  1  0.40363307  0.23241898  0.37151077  1
  Pt  Pt2333  1  0.50000000  0.23241898  0.33938845  1
  Pt  Pt2334  1  0.33938845  0.23241898  0.50000000  1
  Pt  Pt2335  1  0.66061154  0.76758103  0.50000000  1
  Pt  Pt2336  1  0.50000000  0.76758103  0.66061154  1
  Pt  Pt2337  1  0.59636692  0.76758103  0.37151077  1
  Pt  Pt2338  1  0.59636692  0.76758103  0.62848924  1
  Pt  Pt2339  1  0.62848924  0.76758103  0.59636692  1
  Pt  Pt2340  1  0.37151077  0.76758103  0.59636692  1
  Pt  Pt2341  1  0.62848924  0.76758103  0.40363307  1
  Pt  Pt2342  1  0.37151077  0.76758103  0.40363307  1
  Pt  Pt2343  1  0.40363307  0.76758103  0.37151077  1
  Pt  Pt2344  1  0.40363307  0.76758103  0.62848924  1
  Pt  Pt2345  1  0.50000000  0.76758103  0.33938845  1
  Pt  Pt2346  1  0.33938845  0.76758103  0.50000000  1
  Pt  Pt2347  1  0.59636692  0.35134388  0.75697847  1
  Pt  Pt2348  1  0.59636692  0.35134388  0.24302154  1
  Pt  Pt2349  1  0.75697847  0.35134388  0.59636692  1
  Pt  Pt2350  1  0.24302154  0.35134388  0.59636692  1
  Pt  Pt2351  1  0.40363307  0.35134388  0.24302154  1
  Pt  Pt2352  1  0.75697847  0.35134388  0.40363307  1
  Pt  Pt2353  1  0.40363307  0.35134388  0.75697847  1
  Pt  Pt2354  1  0.24302154  0.35134388  0.40363307  1
  Pt  Pt2355  1  0.59636692  0.64865613  0.24302154  1
  Pt  Pt2356  1  0.59636692  0.64865613  0.75697847  1
  Pt  Pt2357  1  0.75697847  0.64865613  0.59636692  1
  Pt  Pt2358  1  0.24302154  0.64865613  0.59636692  1
  Pt  Pt2359  1  0.40363307  0.64865613  0.75697847  1
  Pt  Pt2360  1  0.75697847  0.64865613  0.40363307  1
  Pt  Pt2361  1  0.40363307  0.64865613  0.24302154  1
  Pt  Pt2362  1  0.24302154  0.64865613  0.40363307  1
  Pt  Pt2363  1  0.72485615  0.29188143  0.56424462  1
  Pt  Pt2364  1  0.72485615  0.29188143  0.43575539  1
  Pt  Pt2365  1  0.56424462  0.29188143  0.72485615  1
  Pt  Pt2366  1  0.43575539  0.29188143  0.72485615  1
  Pt  Pt2367  1  0.72485615  0.70811858  0.56424462  1
  Pt  Pt2368  1  0.72485615  0.70811858  0.43575539  1
  Pt  Pt2369  1  0.56424462  0.70811858  0.72485615  1
  Pt  Pt2370  1  0.43575539  0.70811858  0.72485615  1
  Pt  Pt2371  1  0.56424462  0.29188143  0.27514384  1
  Pt  Pt2372  1  0.43575539  0.29188143  0.27514384  1
  Pt  Pt2373  1  0.27514384  0.29188143  0.43575539  1
  Pt  Pt2374  1  0.27514384  0.29188143  0.56424462  1
  Pt  Pt2375  1  0.43575539  0.70811858  0.27514384  1
  Pt  Pt2376  1  0.27514384  0.70811858  0.43575539  1
  Pt  Pt2377  1  0.56424462  0.70811858  0.27514384  1
  Pt  Pt2378  1  0.27514384  0.70811858  0.56424462  1
  Pt  Pt2379  1  0.66061154  0.41080633  0.75697847  1
  Pt  Pt2380  1  0.66061154  0.41080633  0.24302154  1
  Pt  Pt2381  1  0.24302154  0.41080633  0.66061154  1
  Pt  Pt2382  1  0.75697847  0.41080633  0.66061154  1
  Pt  Pt2383  1  0.66061154  0.58919368  0.24302154  1
  Pt  Pt2384  1  0.66061154  0.58919368  0.75697847  1
  Pt  Pt2385  1  0.75697847  0.58919368  0.66061154  1
  Pt  Pt2386  1  0.24302154  0.58919368  0.66061154  1
  Pt  Pt2387  1  0.33938845  0.41080633  0.75697847  1
  Pt  Pt2388  1  0.33938845  0.41080633  0.24302154  1
  Pt  Pt2389  1  0.75697847  0.41080633  0.33938845  1
  Pt  Pt2390  1  0.24302154  0.41080633  0.33938845  1
  Pt  Pt2391  1  0.33938845  0.58919368  0.75697847  1
  Pt  Pt2392  1  0.75697847  0.58919368  0.33938845  1
  Pt  Pt2393  1  0.33938845  0.58919368  0.24302154  1
  Pt  Pt2394  1  0.24302154  0.58919368  0.33938845  1
  Pt  Pt2395  1  0.78910077  0.47026878  0.62848924  1
  Pt  Pt2396  1  0.78910077  0.47026878  0.37151077  1
  Pt  Pt2397  1  0.37151077  0.47026878  0.78910077  1
  Pt  Pt2398  1  0.62848924  0.47026878  0.78910077  1
  Pt  Pt2399  1  0.78910077  0.52973123  0.37151077  1
  Pt  Pt2400  1  0.78910077  0.52973123  0.62848924  1
  Pt  Pt2401  1  0.62848924  0.52973123  0.78910077  1
  Pt  Pt2402  1  0.37151077  0.52973123  0.78910077  1
  Pt  Pt2403  1  0.21089922  0.47026878  0.62848924  1
  Pt  Pt2404  1  0.62848924  0.47026878  0.21089922  1
  Pt  Pt2405  1  0.37151077  0.47026878  0.21089922  1
  Pt  Pt2406  1  0.21089922  0.47026878  0.37151077  1
  Pt  Pt2407  1  0.21089922  0.52973123  0.62848924  1
  Pt  Pt2408  1  0.21089922  0.52973123  0.37151077  1
  Pt  Pt2409  1  0.37151077  0.52973123  0.21089922  1
  Pt  Pt2410  1  0.62848924  0.52973123  0.21089922  1
  Pt  Pt2411  1  0.56424462  0.23241898  0.66061154  1
  Pt  Pt2412  1  0.66061154  0.23241898  0.56424462  1
  Pt  Pt2413  1  0.43575539  0.23241898  0.66061154  1
  Pt  Pt2414  1  0.66061154  0.23241898  0.43575539  1
  Pt  Pt2415  1  0.33938845  0.23241898  0.56424462  1
  Pt  Pt2416  1  0.43575539  0.23241898  0.33938845  1
  Pt  Pt2417  1  0.56424462  0.23241898  0.33938845  1
  Pt  Pt2418  1  0.33938845  0.23241898  0.43575539  1
  Pt  Pt2419  1  0.66061154  0.76758103  0.56424462  1
  Pt  Pt2420  1  0.66061154  0.76758103  0.43575539  1
  Pt  Pt2421  1  0.43575539  0.76758103  0.66061154  1
  Pt  Pt2422  1  0.56424462  0.76758103  0.66061154  1
  Pt  Pt2423  1  0.56424462  0.76758103  0.33938845  1
  Pt  Pt2424  1  0.33938845  0.76758103  0.43575539  1
  Pt  Pt2425  1  0.43575539  0.76758103  0.33938845  1
  Pt  Pt2426  1  0.33938845  0.76758103  0.56424462  1
  Pt  Pt2427  1  0.53212230  0.47026878  0.17877692  1
  Pt  Pt2428  1  0.82122309  0.47026878  0.53212230  1
  Pt  Pt2429  1  0.17877692  0.47026878  0.53212230  1
  Pt  Pt2430  1  0.53212230  0.47026878  0.82122309  1
  Pt  Pt2431  1  0.53212230  0.52973123  0.17877692  1
  Pt  Pt2432  1  0.82122309  0.52973123  0.53212230  1
  Pt  Pt2433  1  0.17877692  0.52973123  0.53212230  1
  Pt  Pt2434  1  0.53212230  0.52973123  0.82122309  1
  Pt  Pt2435  1  0.82122309  0.47026878  0.46787769  1
  Pt  Pt2436  1  0.46787769  0.47026878  0.17877692  1
  Pt  Pt2437  1  0.17877692  0.47026878  0.46787769  1
  Pt  Pt2438  1  0.46787769  0.47026878  0.82122309  1
  Pt  Pt2439  1  0.82122309  0.52973123  0.46787769  1
  Pt  Pt2440  1  0.46787769  0.52973123  0.17877692  1
  Pt  Pt2441  1  0.17877692  0.52973123  0.46787769  1
  Pt  Pt2442  1  0.46787769  0.52973123  0.82122309  1
  Pt  Pt2443  1  0.78910077  0.35134388  0.50000000  1
  Pt  Pt2444  1  0.50000000  0.35134388  0.78910077  1
  Pt  Pt2445  1  0.78910077  0.64865613  0.50000000  1
  Pt  Pt2446  1  0.50000000  0.64865613  0.78910077  1
  Pt  Pt2447  1  0.50000000  0.35134388  0.21089922  1
  Pt  Pt2448  1  0.21089922  0.35134388  0.50000000  1
  Pt  Pt2449  1  0.21089922  0.64865613  0.50000000  1
  Pt  Pt2450  1  0.50000000  0.64865613  0.21089922  1
  Pt  Pt2451  1  0.69273385  0.29188143  0.66061154  1
  Pt  Pt2452  1  0.66061154  0.29188143  0.30726615  1
  Pt  Pt2453  1  0.66061154  0.29188143  0.69273385  1
  Pt  Pt2454  1  0.30726615  0.29188143  0.66061154  1
  Pt  Pt2455  1  0.69273385  0.29188143  0.33938845  1
  Pt  Pt2456  1  0.30726615  0.29188143  0.33938845  1
  Pt  Pt2457  1  0.33938845  0.29188143  0.30726615  1
  Pt  Pt2458  1  0.33938845  0.29188143  0.69273385  1
  Pt  Pt2459  1  0.66061154  0.70811858  0.69273385  1
  Pt  Pt2460  1  0.66061154  0.70811858  0.30726615  1
  Pt  Pt2461  1  0.69273385  0.70811858  0.66061154  1
  Pt  Pt2462  1  0.30726615  0.70811858  0.66061154  1
  Pt  Pt2463  1  0.69273385  0.70811858  0.33938845  1
  Pt  Pt2464  1  0.33938845  0.70811858  0.30726615  1
  Pt  Pt2465  1  0.30726615  0.70811858  0.33938845  1
  Pt  Pt2466  1  0.33938845  0.70811858  0.69273385  1
  Pt  Pt2467  1  0.50000000  0.17295653  0.53212230  1
  Pt  Pt2468  1  0.53212230  0.17295653  0.50000000  1
  Pt  Pt2469  1  0.50000000  0.17295653  0.46787769  1
  Pt  Pt2470  1  0.46787769  0.17295653  0.50000000  1
  Pt  Pt2471  1  0.53212230  0.82704348  0.50000000  1
  Pt  Pt2472  1  0.50000000  0.82704348  0.53212230  1
  Pt  Pt2473  1  0.46787769  0.82704348  0.50000000  1
  Pt  Pt2474  1  0.50000000  0.82704348  0.46787769  1
  Pt  Pt2475  1  0.78910077  0.41080633  0.62848924  1
  Pt  Pt2476  1  0.78910077  0.41080633  0.37151077  1
  Pt  Pt2477  1  0.37151077  0.41080633  0.78910077  1
  Pt  Pt2478  1  0.62848924  0.41080633  0.78910077  1
  Pt  Pt2479  1  0.78910077  0.58919368  0.37151077  1
  Pt  Pt2480  1  0.78910077  0.58919368  0.62848924  1
  Pt  Pt2481  1  0.37151077  0.58919368  0.78910077  1
  Pt  Pt2482  1  0.62848924  0.58919368  0.78910077  1
  Pt  Pt2483  1  0.21089922  0.41080633  0.37151077  1
  Pt  Pt2484  1  0.21089922  0.41080633  0.62848924  1
  Pt  Pt2485  1  0.37151077  0.41080633  0.21089922  1
  Pt  Pt2486  1  0.62848924  0.41080633  0.21089922  1
  Pt  Pt2487  1  0.21089922  0.58919368  0.62848924  1
  Pt  Pt2488  1  0.21089922  0.58919368  0.37151077  1
  Pt  Pt2489  1  0.62848924  0.58919368  0.21089922  1
  Pt  Pt2490  1  0.37151077  0.58919368  0.21089922  1
  Pt  Pt2491  1  0.69273385  0.23241898  0.53212230  1
  Pt  Pt2492  1  0.53212230  0.23241898  0.30726615  1
  Pt  Pt2493  1  0.30726615  0.23241898  0.53212230  1
  Pt  Pt2494  1  0.53212230  0.23241898  0.69273385  1
  Pt  Pt2495  1  0.69273385  0.23241898  0.46787769  1
  Pt  Pt2496  1  0.30726615  0.23241898  0.46787769  1
  Pt  Pt2497  1  0.46787769  0.23241898  0.30726615  1
  Pt  Pt2498  1  0.46787769  0.23241898  0.69273385  1
  Pt  Pt2499  1  0.53212230  0.76758103  0.30726615  1
  Pt  Pt2500  1  0.53212230  0.76758103  0.69273385  1
  Pt  Pt2501  1  0.69273385  0.76758103  0.53212230  1
  Pt  Pt2502  1  0.30726615  0.76758103  0.53212230  1
  Pt  Pt2503  1  0.69273385  0.76758103  0.46787769  1
  Pt  Pt2504  1  0.46787769  0.76758103  0.30726615  1
  Pt  Pt2505  1  0.46787769  0.76758103  0.69273385  1
  Pt  Pt2506  1  0.30726615  0.76758103  0.46787769  1
  Pt  Pt2507  1  0.78910077  0.35134388  0.43575539  1
  Pt  Pt2508  1  0.78910077  0.35134388  0.56424462  1
  Pt  Pt2509  1  0.43575539  0.35134388  0.78910077  1
  Pt  Pt2510  1  0.56424462  0.35134388  0.78910077  1
  Pt  Pt2511  1  0.69273385  0.35134388  0.72485615  1
  Pt  Pt2512  1  0.72485615  0.35134388  0.30726615  1
  Pt  Pt2513  1  0.72485615  0.35134388  0.69273385  1
  Pt  Pt2514  1  0.30726615  0.35134388  0.72485615  1
  Pt  Pt2515  1  0.78910077  0.64865613  0.56424462  1
  Pt  Pt2516  1  0.78910077  0.64865613  0.43575539  1
  Pt  Pt2517  1  0.56424462  0.64865613  0.78910077  1
  Pt  Pt2518  1  0.43575539  0.64865613  0.78910077  1
  Pt  Pt2519  1  0.69273385  0.64865613  0.72485615  1
  Pt  Pt2520  1  0.72485615  0.64865613  0.69273385  1
  Pt  Pt2521  1  0.72485615  0.64865613  0.30726615  1
  Pt  Pt2522  1  0.30726615  0.64865613  0.72485615  1
  Pt  Pt2523  1  0.69273385  0.35134388  0.27514384  1
  Pt  Pt2524  1  0.30726615  0.35134388  0.27514384  1
  Pt  Pt2525  1  0.27514384  0.35134388  0.30726615  1
  Pt  Pt2526  1  0.27514384  0.35134388  0.69273385  1
  Pt  Pt2527  1  0.21089922  0.35134388  0.43575539  1
  Pt  Pt2528  1  0.43575539  0.35134388  0.21089922  1
  Pt  Pt2529  1  0.21089922  0.35134388  0.56424462  1
  Pt  Pt2530  1  0.56424462  0.35134388  0.21089922  1
  Pt  Pt2531  1  0.69273385  0.64865613  0.27514384  1
  Pt  Pt2532  1  0.27514384  0.64865613  0.30726615  1
  Pt  Pt2533  1  0.30726615  0.64865613  0.27514384  1
  Pt  Pt2534  1  0.27514384  0.64865613  0.69273385  1
  Pt  Pt2535  1  0.43575539  0.64865613  0.21089922  1
  Pt  Pt2536  1  0.21089922  0.64865613  0.43575539  1
  Pt  Pt2537  1  0.21089922  0.64865613  0.56424462  1
  Pt  Pt2538  1  0.56424462  0.64865613  0.21089922  1
  Pt  Pt2539  1  0.72485615  0.29188143  0.62848924  1
  Pt  Pt2540  1  0.72485615  0.29188143  0.37151077  1
  Pt  Pt2541  1  0.62848924  0.29188143  0.72485615  1
  Pt  Pt2542  1  0.37151077  0.29188143  0.72485615  1
  Pt  Pt2543  1  0.53212230  0.29188143  0.75697847  1
  Pt  Pt2544  1  0.53212230  0.29188143  0.24302154  1
  Pt  Pt2545  1  0.75697847  0.29188143  0.53212230  1
  Pt  Pt2546  1  0.24302154  0.29188143  0.53212230  1
  Pt  Pt2547  1  0.46787769  0.29188143  0.75697847  1
  Pt  Pt2548  1  0.46787769  0.29188143  0.24302154  1
  Pt  Pt2549  1  0.75697847  0.29188143  0.46787769  1
  Pt  Pt2550  1  0.24302154  0.29188143  0.46787769  1
  Pt  Pt2551  1  0.72485615  0.70811858  0.37151077  1
  Pt  Pt2552  1  0.37151077  0.70811858  0.72485615  1
  Pt  Pt2553  1  0.72485615  0.70811858  0.62848924  1
  Pt  Pt2554  1  0.62848924  0.70811858  0.72485615  1
  Pt  Pt2555  1  0.27514384  0.29188143  0.62848924  1
  Pt  Pt2556  1  0.37151077  0.29188143  0.27514384  1
  Pt  Pt2557  1  0.62848924  0.29188143  0.27514384  1
  Pt  Pt2558  1  0.27514384  0.29188143  0.37151077  1
  Pt  Pt2559  1  0.53212230  0.70811858  0.24302154  1
  Pt  Pt2560  1  0.53212230  0.70811858  0.75697847  1
  Pt  Pt2561  1  0.75697847  0.70811858  0.53212230  1
  Pt  Pt2562  1  0.24302154  0.70811858  0.53212230  1
  Pt  Pt2563  1  0.46787769  0.70811858  0.24302154  1
  Pt  Pt2564  1  0.75697847  0.70811858  0.46787769  1
  Pt  Pt2565  1  0.24302154  0.70811858  0.46787769  1
  Pt  Pt2566  1  0.46787769  0.70811858  0.75697847  1
  Pt  Pt2567  1  0.27514384  0.70811858  0.37151077  1
  Pt  Pt2568  1  0.27514384  0.70811858  0.62848924  1
  Pt  Pt2569  1  0.62848924  0.70811858  0.27514384  1
  Pt  Pt2570  1  0.37151077  0.70811858  0.27514384  1
