data_con1.20_2nm_full_ontop
_audit_creation_date              2024-06-10
_audit_creation_method            'Materials Studio'
_symmetry_space_group_name_H-M    'P1'
_symmetry_Int_Tables_number       1
_symmetry_cell_setting            triclinic
loop_
_symmetry_equiv_pos_as_xyz
  x,y,z
_cell_length_a                    60.0000
_cell_length_b                    60.0000
_cell_length_c                    60.0000
_cell_angle_alpha                 90.0000
_cell_angle_beta                  90.0000
_cell_angle_gamma                 90.0000
loop_
_atom_site_label
_atom_site_type_symbol
_atom_site_fract_x
_atom_site_fract_y
_atom_site_fract_z
_atom_site_U_iso_or_equiv
_atom_site_adp_type
_atom_site_occupancy
Ni1    Ni    0.50000   0.53041   0.46976   0.00000  Uiso   1.00
Ni2    Ni    0.53041   0.50000   0.46976   0.00000  Uiso   1.00
Ni3    Ni    0.53041   0.50000   0.53024   0.00000  Uiso   1.00
Ni4    Ni    0.50000   0.53041   0.53024   0.00000  Uiso   1.00
Ni5    Ni    0.46959   0.50000   0.46976   0.00000  Uiso   1.00
Ni6    Ni    0.50000   0.46959   0.46976   0.00000  Uiso   1.00
Ni7    Ni    0.46959   0.50000   0.53024   0.00000  Uiso   1.00
Ni8    Ni    0.50000   0.46959   0.53024   0.00000  Uiso   1.00
Ni9    Ni    0.53041   0.53041   0.50000   0.00000  Uiso   1.00
Ni10   Ni    0.46959   0.53041   0.50000   0.00000  Uiso   1.00
Ni11   Ni    0.53041   0.46959   0.50000   0.00000  Uiso   1.00
Ni12   Ni    0.46959   0.46959   0.50000   0.00000  Uiso   1.00
Ni13   Ni    0.50000   0.50000   0.43952   0.00000  Uiso   1.00
Ni14   Ni    0.50000   0.50000   0.56048   0.00000  Uiso   1.00
Ni15   Ni    0.53041   0.56083   0.46976   0.00000  Uiso   1.00
Ni16   Ni    0.56083   0.53041   0.46976   0.00000  Uiso   1.00
Ni17   Ni    0.53041   0.56083   0.53024   0.00000  Uiso   1.00
Ni18   Ni    0.56083   0.53041   0.53024   0.00000  Uiso   1.00
Ni19   Ni    0.43917   0.53041   0.46976   0.00000  Uiso   1.00
Ni20   Ni    0.53041   0.43917   0.46976   0.00000  Uiso   1.00
Ni21   Ni    0.56083   0.46959   0.46976   0.00000  Uiso   1.00
Ni22   Ni    0.46959   0.56083   0.46976   0.00000  Uiso   1.00
Ni23   Ni    0.43917   0.53041   0.53024   0.00000  Uiso   1.00
Ni24   Ni    0.53041   0.43917   0.53024   0.00000  Uiso   1.00
Ni25   Ni    0.56083   0.46959   0.53024   0.00000  Uiso   1.00
Ni26   Ni    0.46959   0.56083   0.53024   0.00000  Uiso   1.00
Ni27   Ni    0.43917   0.46959   0.46976   0.00000  Uiso   1.00
Ni28   Ni    0.46959   0.43917   0.46976   0.00000  Uiso   1.00
Ni29   Ni    0.43917   0.46959   0.53024   0.00000  Uiso   1.00
Ni30   Ni    0.46959   0.43917   0.53024   0.00000  Uiso   1.00
Ni31   Ni    0.50000   0.56083   0.43952   0.00000  Uiso   1.00
Ni32   Ni    0.56083   0.50000   0.43952   0.00000  Uiso   1.00
Ni33   Ni    0.43917   0.50000   0.43952   0.00000  Uiso   1.00
Ni34   Ni    0.50000   0.43917   0.43952   0.00000  Uiso   1.00
Ni35   Ni    0.56083   0.50000   0.56048   0.00000  Uiso   1.00
Ni36   Ni    0.50000   0.56083   0.56048   0.00000  Uiso   1.00
Ni37   Ni    0.43917   0.50000   0.56048   0.00000  Uiso   1.00
Ni38   Ni    0.50000   0.43917   0.56048   0.00000  Uiso   1.00
Ni39   Ni    0.50000   0.53041   0.40928   0.00000  Uiso   1.00
Ni40   Ni    0.53041   0.50000   0.40928   0.00000  Uiso   1.00
Ni41   Ni    0.46959   0.50000   0.40928   0.00000  Uiso   1.00
Ni42   Ni    0.50000   0.46959   0.40928   0.00000  Uiso   1.00
Ni43   Ni    0.50000   0.53041   0.59072   0.00000  Uiso   1.00
Ni44   Ni    0.53041   0.50000   0.59072   0.00000  Uiso   1.00
Ni45   Ni    0.46959   0.50000   0.59072   0.00000  Uiso   1.00
Ni46   Ni    0.50000   0.46959   0.59072   0.00000  Uiso   1.00
Ni47   Ni    0.59124   0.50000   0.46976   0.00000  Uiso   1.00
Ni48   Ni    0.50000   0.59124   0.46976   0.00000  Uiso   1.00
Ni49   Ni    0.50000   0.59124   0.53024   0.00000  Uiso   1.00
Ni50   Ni    0.59124   0.50000   0.53024   0.00000  Uiso   1.00
Ni51   Ni    0.40876   0.50000   0.46976   0.00000  Uiso   1.00
Ni52   Ni    0.50000   0.40876   0.46976   0.00000  Uiso   1.00
Ni53   Ni    0.40876   0.50000   0.53024   0.00000  Uiso   1.00
Ni54   Ni    0.50000   0.40876   0.53024   0.00000  Uiso   1.00
Ni55   Ni    0.53041   0.59124   0.50000   0.00000  Uiso   1.00
Ni56   Ni    0.59124   0.53041   0.50000   0.00000  Uiso   1.00
Ni57   Ni    0.59124   0.46959   0.50000   0.00000  Uiso   1.00
Ni58   Ni    0.46959   0.59124   0.50000   0.00000  Uiso   1.00
Ni59   Ni    0.40876   0.53041   0.50000   0.00000  Uiso   1.00
Ni60   Ni    0.53041   0.40876   0.50000   0.00000  Uiso   1.00
Ni61   Ni    0.40876   0.46959   0.50000   0.00000  Uiso   1.00
Ni62   Ni    0.46959   0.40876   0.50000   0.00000  Uiso   1.00
Ni63   Ni    0.56083   0.56083   0.43952   0.00000  Uiso   1.00
Ni64   Ni    0.56083   0.43917   0.43952   0.00000  Uiso   1.00
Ni65   Ni    0.43917   0.56083   0.43952   0.00000  Uiso   1.00
Ni66   Ni    0.56083   0.56083   0.56048   0.00000  Uiso   1.00
Ni67   Ni    0.43917   0.43917   0.43952   0.00000  Uiso   1.00
Ni68   Ni    0.56083   0.43917   0.56048   0.00000  Uiso   1.00
Ni69   Ni    0.43917   0.56083   0.56048   0.00000  Uiso   1.00
Ni70   Ni    0.43917   0.43917   0.56048   0.00000  Uiso   1.00
Ni71   Ni    0.53041   0.56083   0.40928   0.00000  Uiso   1.00
Ni72   Ni    0.56083   0.53041   0.40928   0.00000  Uiso   1.00
Ni73   Ni    0.53041   0.43917   0.40928   0.00000  Uiso   1.00
Ni74   Ni    0.43917   0.53041   0.40928   0.00000  Uiso   1.00
Ni75   Ni    0.56083   0.46959   0.40928   0.00000  Uiso   1.00
Ni76   Ni    0.46959   0.56083   0.40928   0.00000  Uiso   1.00
Ni77   Ni    0.43917   0.46959   0.40928   0.00000  Uiso   1.00
Ni78   Ni    0.46959   0.43917   0.40928   0.00000  Uiso   1.00
Ni79   Ni    0.53041   0.56083   0.59072   0.00000  Uiso   1.00
Ni80   Ni    0.56083   0.53041   0.59072   0.00000  Uiso   1.00
Ni81   Ni    0.53041   0.43917   0.59072   0.00000  Uiso   1.00
Ni82   Ni    0.43917   0.53041   0.59072   0.00000  Uiso   1.00
Ni83   Ni    0.56083   0.46959   0.59072   0.00000  Uiso   1.00
Ni84   Ni    0.46959   0.56083   0.59072   0.00000  Uiso   1.00
Ni85   Ni    0.43917   0.46959   0.59072   0.00000  Uiso   1.00
Ni86   Ni    0.46959   0.43917   0.59072   0.00000  Uiso   1.00
Ni87   Ni    0.56083   0.59124   0.46976   0.00000  Uiso   1.00
Ni88   Ni    0.59124   0.56083   0.46976   0.00000  Uiso   1.00
Ni89   Ni    0.56083   0.59124   0.53024   0.00000  Uiso   1.00
Ni90   Ni    0.59124   0.56083   0.53024   0.00000  Uiso   1.00
Ni91   Ni    0.59124   0.43917   0.46976   0.00000  Uiso   1.00
Ni92   Ni    0.43917   0.59124   0.46976   0.00000  Uiso   1.00
Ni93   Ni    0.59124   0.43917   0.53024   0.00000  Uiso   1.00
Ni94   Ni    0.43917   0.59124   0.53024   0.00000  Uiso   1.00
Ni95   Ni    0.56083   0.40876   0.46976   0.00000  Uiso   1.00
Ni96   Ni    0.40876   0.56083   0.46976   0.00000  Uiso   1.00
Ni97   Ni    0.56083   0.40876   0.53024   0.00000  Uiso   1.00
Ni98   Ni    0.40876   0.56083   0.53024   0.00000  Uiso   1.00
Ni99   Ni    0.43917   0.40876   0.46976   0.00000  Uiso   1.00
Ni100  Ni    0.40876   0.43917   0.46976   0.00000  Uiso   1.00
Ni101  Ni    0.40876   0.43917   0.53024   0.00000  Uiso   1.00
Ni102  Ni    0.43917   0.40876   0.53024   0.00000  Uiso   1.00
Ni103  Ni    0.53041   0.53041   0.37903   0.00000  Uiso   1.00
Ni104  Ni    0.53041   0.53041   0.62097   0.00000  Uiso   1.00
Ni105  Ni    0.53041   0.46959   0.37903   0.00000  Uiso   1.00
Ni106  Ni    0.46959   0.53041   0.37903   0.00000  Uiso   1.00
Ni107  Ni    0.53041   0.46959   0.62097   0.00000  Uiso   1.00
Ni108  Ni    0.46959   0.53041   0.62097   0.00000  Uiso   1.00
Ni109  Ni    0.46959   0.46959   0.37903   0.00000  Uiso   1.00
Ni110  Ni    0.46959   0.46959   0.62097   0.00000  Uiso   1.00
Ni111  Ni    0.59124   0.50000   0.40928   0.00000  Uiso   1.00
Ni112  Ni    0.50000   0.59124   0.40928   0.00000  Uiso   1.00
Ni113  Ni    0.59124   0.50000   0.59072   0.00000  Uiso   1.00
Ni114  Ni    0.50000   0.59124   0.59072   0.00000  Uiso   1.00
Ni115  Ni    0.40876   0.50000   0.40928   0.00000  Uiso   1.00
Ni116  Ni    0.50000   0.40876   0.40928   0.00000  Uiso   1.00
Ni117  Ni    0.40876   0.50000   0.59072   0.00000  Uiso   1.00
Ni118  Ni    0.50000   0.40876   0.59072   0.00000  Uiso   1.00
Ni119  Ni    0.53041   0.62165   0.46976   0.00000  Uiso   1.00
Ni120  Ni    0.62165   0.53041   0.46976   0.00000  Uiso   1.00
Ni121  Ni    0.53041   0.62165   0.53024   0.00000  Uiso   1.00
Ni122  Ni    0.62165   0.53041   0.53024   0.00000  Uiso   1.00
Ni123  Ni    0.62165   0.46959   0.46976   0.00000  Uiso   1.00
Ni124  Ni    0.46959   0.62165   0.46976   0.00000  Uiso   1.00
Ni125  Ni    0.62165   0.46959   0.53024   0.00000  Uiso   1.00
Ni126  Ni    0.46959   0.62165   0.53024   0.00000  Uiso   1.00
Ni127  Ni    0.37835   0.53041   0.46976   0.00000  Uiso   1.00
Ni128  Ni    0.53041   0.37835   0.46976   0.00000  Uiso   1.00
Ni129  Ni    0.37835   0.53041   0.53024   0.00000  Uiso   1.00
Ni130  Ni    0.53041   0.37835   0.53024   0.00000  Uiso   1.00
Ni131  Ni    0.37835   0.46959   0.46976   0.00000  Uiso   1.00
Ni132  Ni    0.46959   0.37835   0.46976   0.00000  Uiso   1.00
Ni133  Ni    0.37835   0.46959   0.53024   0.00000  Uiso   1.00
Ni134  Ni    0.46959   0.37835   0.53024   0.00000  Uiso   1.00
Ni135  Ni    0.59124   0.59124   0.50000   0.00000  Uiso   1.00
Ni136  Ni    0.59124   0.40876   0.50000   0.00000  Uiso   1.00
Ni137  Ni    0.40876   0.59124   0.50000   0.00000  Uiso   1.00
Ni138  Ni    0.40876   0.40876   0.50000   0.00000  Uiso   1.00
Ni139  Ni    0.62165   0.50000   0.43952   0.00000  Uiso   1.00
Ni140  Ni    0.50000   0.62165   0.43952   0.00000  Uiso   1.00
Ni141  Ni    0.50000   0.62165   0.56048   0.00000  Uiso   1.00
Ni142  Ni    0.62165   0.50000   0.56048   0.00000  Uiso   1.00
Ni143  Ni    0.37835   0.50000   0.43952   0.00000  Uiso   1.00
Ni144  Ni    0.50000   0.37835   0.43952   0.00000  Uiso   1.00
Ni145  Ni    0.37835   0.50000   0.56048   0.00000  Uiso   1.00
Ni146  Ni    0.50000   0.37835   0.56048   0.00000  Uiso   1.00
Ni147  Ni    0.56083   0.59124   0.40928   0.00000  Uiso   1.00
Ni148  Ni    0.59124   0.56083   0.40928   0.00000  Uiso   1.00
Ni149  Ni    0.59124   0.43917   0.40928   0.00000  Uiso   1.00
Ni150  Ni    0.43917   0.59124   0.40928   0.00000  Uiso   1.00
Ni151  Ni    0.56083   0.59124   0.59072   0.00000  Uiso   1.00
Ni152  Ni    0.59124   0.56083   0.59072   0.00000  Uiso   1.00
Ni153  Ni    0.59124   0.43917   0.59072   0.00000  Uiso   1.00
Ni154  Ni    0.43917   0.59124   0.59072   0.00000  Uiso   1.00
Ni155  Ni    0.56083   0.40876   0.40928   0.00000  Uiso   1.00
Ni156  Ni    0.40876   0.56083   0.40928   0.00000  Uiso   1.00
Ni157  Ni    0.43917   0.40876   0.40928   0.00000  Uiso   1.00
Ni158  Ni    0.40876   0.43917   0.40928   0.00000  Uiso   1.00
Ni159  Ni    0.56083   0.40876   0.59072   0.00000  Uiso   1.00
Ni160  Ni    0.40876   0.56083   0.59072   0.00000  Uiso   1.00
Ni161  Ni    0.40876   0.43917   0.59072   0.00000  Uiso   1.00
Ni162  Ni    0.43917   0.40876   0.59072   0.00000  Uiso   1.00
Ni163  Ni    0.56083   0.62165   0.43952   0.00000  Uiso   1.00
Ni164  Ni    0.62165   0.56083   0.43952   0.00000  Uiso   1.00
Ni165  Ni    0.43917   0.62165   0.43952   0.00000  Uiso   1.00
Ni166  Ni    0.62165   0.43917   0.43952   0.00000  Uiso   1.00
Ni167  Ni    0.56083   0.62165   0.56048   0.00000  Uiso   1.00
Ni168  Ni    0.62165   0.56083   0.56048   0.00000  Uiso   1.00
Ni169  Ni    0.56083   0.37835   0.43952   0.00000  Uiso   1.00
Ni170  Ni    0.37835   0.56083   0.43952   0.00000  Uiso   1.00
Ni171  Ni    0.62165   0.43917   0.56048   0.00000  Uiso   1.00
Ni172  Ni    0.43917   0.62165   0.56048   0.00000  Uiso   1.00
Ni173  Ni    0.43917   0.37835   0.43952   0.00000  Uiso   1.00
Ni174  Ni    0.37835   0.43917   0.43952   0.00000  Uiso   1.00
Ni175  Ni    0.56083   0.37835   0.56048   0.00000  Uiso   1.00
Ni176  Ni    0.37835   0.56083   0.56048   0.00000  Uiso   1.00
Ni177  Ni    0.37835   0.43917   0.56048   0.00000  Uiso   1.00
Ni178  Ni    0.43917   0.37835   0.56048   0.00000  Uiso   1.00
Ni179  Ni    0.50000   0.53041   0.34879   0.00000  Uiso   1.00
Ni180  Ni    0.53041   0.50000   0.34879   0.00000  Uiso   1.00
Ni181  Ni    0.46959   0.50000   0.34879   0.00000  Uiso   1.00
Ni182  Ni    0.50000   0.46959   0.34879   0.00000  Uiso   1.00
Ni183  Ni    0.50000   0.53041   0.65121   0.00000  Uiso   1.00
Ni184  Ni    0.53041   0.50000   0.65121   0.00000  Uiso   1.00
Ni185  Ni    0.46959   0.50000   0.65121   0.00000  Uiso   1.00
Ni186  Ni    0.50000   0.46959   0.65121   0.00000  Uiso   1.00
Ni187  Ni    0.53041   0.59124   0.37903   0.00000  Uiso   1.00
Ni188  Ni    0.59124   0.53041   0.37903   0.00000  Uiso   1.00
Ni189  Ni    0.53041   0.59124   0.62097   0.00000  Uiso   1.00
Ni190  Ni    0.59124   0.53041   0.62097   0.00000  Uiso   1.00
Ni191  Ni    0.59124   0.46959   0.37903   0.00000  Uiso   1.00
Ni192  Ni    0.46959   0.59124   0.37903   0.00000  Uiso   1.00
Ni193  Ni    0.59124   0.46959   0.62097   0.00000  Uiso   1.00
Ni194  Ni    0.46959   0.59124   0.62097   0.00000  Uiso   1.00
Ni195  Ni    0.53041   0.40876   0.37903   0.00000  Uiso   1.00
Ni196  Ni    0.40876   0.53041   0.37903   0.00000  Uiso   1.00
Ni197  Ni    0.40876   0.53041   0.62097   0.00000  Uiso   1.00
Ni198  Ni    0.53041   0.40876   0.62097   0.00000  Uiso   1.00
Ni199  Ni    0.40876   0.46959   0.37903   0.00000  Uiso   1.00
Ni200  Ni    0.46959   0.40876   0.37903   0.00000  Uiso   1.00
Ni201  Ni    0.40876   0.46959   0.62097   0.00000  Uiso   1.00
Ni202  Ni    0.46959   0.40876   0.62097   0.00000  Uiso   1.00
Ni203  Ni    0.53041   0.62165   0.40928   0.00000  Uiso   1.00
Ni204  Ni    0.62165   0.53041   0.40928   0.00000  Uiso   1.00
Ni205  Ni    0.62165   0.46959   0.40928   0.00000  Uiso   1.00
Ni206  Ni    0.46959   0.62165   0.40928   0.00000  Uiso   1.00
Ni207  Ni    0.53041   0.37835   0.40928   0.00000  Uiso   1.00
Ni208  Ni    0.37835   0.53041   0.40928   0.00000  Uiso   1.00
Ni209  Ni    0.53041   0.62165   0.59072   0.00000  Uiso   1.00
Ni210  Ni    0.62165   0.53041   0.59072   0.00000  Uiso   1.00
Ni211  Ni    0.37835   0.46959   0.40928   0.00000  Uiso   1.00
Ni212  Ni    0.46959   0.37835   0.40928   0.00000  Uiso   1.00
Ni213  Ni    0.62165   0.46959   0.59072   0.00000  Uiso   1.00
Ni214  Ni    0.46959   0.62165   0.59072   0.00000  Uiso   1.00
Ni215  Ni    0.37835   0.53041   0.59072   0.00000  Uiso   1.00
Ni216  Ni    0.53041   0.37835   0.59072   0.00000  Uiso   1.00
Ni217  Ni    0.37835   0.46959   0.59072   0.00000  Uiso   1.00
Ni218  Ni    0.46959   0.37835   0.59072   0.00000  Uiso   1.00
Ni219  Ni    0.50000   0.65207   0.46976   0.00000  Uiso   1.00
Ni220  Ni    0.65207   0.50000   0.46976   0.00000  Uiso   1.00
Ni221  Ni    0.62165   0.59124   0.46976   0.00000  Uiso   1.00
Ni222  Ni    0.59124   0.62165   0.46976   0.00000  Uiso   1.00
Ni223  Ni    0.50000   0.65207   0.53024   0.00000  Uiso   1.00
Ni224  Ni    0.65207   0.50000   0.53024   0.00000  Uiso   1.00
Ni225  Ni    0.62165   0.59124   0.53024   0.00000  Uiso   1.00
Ni226  Ni    0.59124   0.62165   0.53024   0.00000  Uiso   1.00
Ni227  Ni    0.59124   0.37835   0.46976   0.00000  Uiso   1.00
Ni228  Ni    0.37835   0.59124   0.46976   0.00000  Uiso   1.00
Ni229  Ni    0.59124   0.37835   0.53024   0.00000  Uiso   1.00
Ni230  Ni    0.37835   0.59124   0.53024   0.00000  Uiso   1.00
Ni231  Ni    0.62165   0.40876   0.46976   0.00000  Uiso   1.00
Ni232  Ni    0.40876   0.62165   0.46976   0.00000  Uiso   1.00
Ni233  Ni    0.62165   0.40876   0.53024   0.00000  Uiso   1.00
Ni234  Ni    0.40876   0.62165   0.53024   0.00000  Uiso   1.00
Ni235  Ni    0.37835   0.40876   0.46976   0.00000  Uiso   1.00
Ni236  Ni    0.40876   0.37835   0.46976   0.00000  Uiso   1.00
Ni237  Ni    0.34793   0.50000   0.46976   0.00000  Uiso   1.00
Ni238  Ni    0.50000   0.34793   0.46976   0.00000  Uiso   1.00
Ni239  Ni    0.40876   0.37835   0.53024   0.00000  Uiso   1.00
Ni240  Ni    0.37835   0.40876   0.53024   0.00000  Uiso   1.00
Ni241  Ni    0.50000   0.34793   0.53024   0.00000  Uiso   1.00
Ni242  Ni    0.34793   0.50000   0.53024   0.00000  Uiso   1.00
Ni243  Ni    0.53041   0.65207   0.50000   0.00000  Uiso   1.00
Ni244  Ni    0.65207   0.53041   0.50000   0.00000  Uiso   1.00
Ni245  Ni    0.65207   0.46959   0.50000   0.00000  Uiso   1.00
Ni246  Ni    0.46959   0.65207   0.50000   0.00000  Uiso   1.00
Ni247  Ni    0.53041   0.34793   0.50000   0.00000  Uiso   1.00
Ni248  Ni    0.34793   0.53041   0.50000   0.00000  Uiso   1.00
Ni249  Ni    0.34793   0.46959   0.50000   0.00000  Uiso   1.00
Ni250  Ni    0.46959   0.34793   0.50000   0.00000  Uiso   1.00
Ni251  Ni    0.56083   0.53041   0.34879   0.00000  Uiso   1.00
Ni252  Ni    0.53041   0.56083   0.34879   0.00000  Uiso   1.00
Ni253  Ni    0.53041   0.43917   0.34879   0.00000  Uiso   1.00
Ni254  Ni    0.43917   0.53041   0.34879   0.00000  Uiso   1.00
Ni255  Ni    0.46959   0.56083   0.34879   0.00000  Uiso   1.00
Ni256  Ni    0.56083   0.46959   0.34879   0.00000  Uiso   1.00
Ni257  Ni    0.43917   0.46959   0.34879   0.00000  Uiso   1.00
Ni258  Ni    0.46959   0.43917   0.34879   0.00000  Uiso   1.00
Ni259  Ni    0.53041   0.56083   0.65121   0.00000  Uiso   1.00
Ni260  Ni    0.56083   0.53041   0.65121   0.00000  Uiso   1.00
Ni261  Ni    0.53041   0.43917   0.65121   0.00000  Uiso   1.00
Ni262  Ni    0.43917   0.53041   0.65121   0.00000  Uiso   1.00
Ni263  Ni    0.46959   0.56083   0.65121   0.00000  Uiso   1.00
Ni264  Ni    0.56083   0.46959   0.65121   0.00000  Uiso   1.00
Ni265  Ni    0.43917   0.46959   0.65121   0.00000  Uiso   1.00
Ni266  Ni    0.46959   0.43917   0.65121   0.00000  Uiso   1.00
Ni267  Ni    0.56083   0.65207   0.46976   0.00000  Uiso   1.00
Ni268  Ni    0.65207   0.56083   0.46976   0.00000  Uiso   1.00
Ni269  Ni    0.65207   0.56083   0.53024   0.00000  Uiso   1.00
Ni270  Ni    0.56083   0.65207   0.53024   0.00000  Uiso   1.00
Ni271  Ni    0.65207   0.43917   0.46976   0.00000  Uiso   1.00
Ni272  Ni    0.43917   0.65207   0.46976   0.00000  Uiso   1.00
Ni273  Ni    0.65207   0.43917   0.53024   0.00000  Uiso   1.00
Ni274  Ni    0.43917   0.65207   0.53024   0.00000  Uiso   1.00
Ni275  Ni    0.56083   0.34793   0.46976   0.00000  Uiso   1.00
Ni276  Ni    0.34793   0.56083   0.46976   0.00000  Uiso   1.00
Ni277  Ni    0.56083   0.34793   0.53024   0.00000  Uiso   1.00
Ni278  Ni    0.34793   0.56083   0.53024   0.00000  Uiso   1.00
Ni279  Ni    0.43917   0.34793   0.46976   0.00000  Uiso   1.00
Ni280  Ni    0.34793   0.43917   0.46976   0.00000  Uiso   1.00
Ni281  Ni    0.43917   0.34793   0.53024   0.00000  Uiso   1.00
Ni282  Ni    0.34793   0.43917   0.53024   0.00000  Uiso   1.00
Ni283  Ni    0.50000   0.59124   0.34879   0.00000  Uiso   1.00
Ni284  Ni    0.59124   0.50000   0.34879   0.00000  Uiso   1.00
Ni285  Ni    0.40876   0.50000   0.34879   0.00000  Uiso   1.00
Ni286  Ni    0.50000   0.40876   0.34879   0.00000  Uiso   1.00
Ni287  Ni    0.59124   0.50000   0.65121   0.00000  Uiso   1.00
Ni288  Ni    0.50000   0.59124   0.65121   0.00000  Uiso   1.00
Ni289  Ni    0.40876   0.50000   0.65121   0.00000  Uiso   1.00
Ni290  Ni    0.50000   0.40876   0.65121   0.00000  Uiso   1.00
Ni291  Ni    0.59124   0.59124   0.37903   0.00000  Uiso   1.00
Ni292  Ni    0.59124   0.59124   0.62097   0.00000  Uiso   1.00
Ni293  Ni    0.59124   0.40876   0.37903   0.00000  Uiso   1.00
Ni294  Ni    0.40876   0.59124   0.37903   0.00000  Uiso   1.00
Ni295  Ni    0.59124   0.40876   0.62097   0.00000  Uiso   1.00
Ni296  Ni    0.40876   0.59124   0.62097   0.00000  Uiso   1.00
Ni297  Ni    0.40876   0.40876   0.37903   0.00000  Uiso   1.00
Ni298  Ni    0.40876   0.40876   0.62097   0.00000  Uiso   1.00
Ni299  Ni    0.50000   0.65207   0.40928   0.00000  Uiso   1.00
Ni300  Ni    0.65207   0.50000   0.40928   0.00000  Uiso   1.00
Ni301  Ni    0.62165   0.59124   0.40928   0.00000  Uiso   1.00
Ni302  Ni    0.59124   0.62165   0.40928   0.00000  Uiso   1.00
Ni303  Ni    0.59124   0.37835   0.40928   0.00000  Uiso   1.00
Ni304  Ni    0.37835   0.59124   0.40928   0.00000  Uiso   1.00
Ni305  Ni    0.65207   0.50000   0.59072   0.00000  Uiso   1.00
Ni306  Ni    0.50000   0.65207   0.59072   0.00000  Uiso   1.00
Ni307  Ni    0.62165   0.59124   0.59072   0.00000  Uiso   1.00
Ni308  Ni    0.59124   0.62165   0.59072   0.00000  Uiso   1.00
Ni309  Ni    0.62165   0.40876   0.40928   0.00000  Uiso   1.00
Ni310  Ni    0.40876   0.62165   0.40928   0.00000  Uiso   1.00
Ni311  Ni    0.59124   0.37835   0.59072   0.00000  Uiso   1.00
Ni312  Ni    0.37835   0.59124   0.59072   0.00000  Uiso   1.00
Ni313  Ni    0.40876   0.37835   0.40928   0.00000  Uiso   1.00
Ni314  Ni    0.37835   0.40876   0.40928   0.00000  Uiso   1.00
Ni315  Ni    0.50000   0.34793   0.40928   0.00000  Uiso   1.00
Ni316  Ni    0.34793   0.50000   0.40928   0.00000  Uiso   1.00
Ni317  Ni    0.62165   0.40876   0.59072   0.00000  Uiso   1.00
Ni318  Ni    0.40876   0.62165   0.59072   0.00000  Uiso   1.00
Ni319  Ni    0.37835   0.40876   0.59072   0.00000  Uiso   1.00
Ni320  Ni    0.40876   0.37835   0.59072   0.00000  Uiso   1.00
Ni321  Ni    0.50000   0.34793   0.59072   0.00000  Uiso   1.00
Ni322  Ni    0.34793   0.50000   0.59072   0.00000  Uiso   1.00
Ni323  Ni    0.65207   0.59124   0.50000   0.00000  Uiso   1.00
Ni324  Ni    0.59124   0.65207   0.50000   0.00000  Uiso   1.00
Ni325  Ni    0.65207   0.40876   0.50000   0.00000  Uiso   1.00
Ni326  Ni    0.40876   0.65207   0.50000   0.00000  Uiso   1.00
Ni327  Ni    0.59124   0.34793   0.50000   0.00000  Uiso   1.00
Ni328  Ni    0.34793   0.59124   0.50000   0.00000  Uiso   1.00
Ni329  Ni    0.40876   0.34793   0.50000   0.00000  Uiso   1.00
Ni330  Ni    0.34793   0.40876   0.50000   0.00000  Uiso   1.00
Ni331  Ni    0.50000   0.50000   0.31855   0.00000  Uiso   1.00
Ni332  Ni    0.50000   0.50000   0.68145   0.00000  Uiso   1.00
Ni333  Ni    0.62165   0.62165   0.43952   0.00000  Uiso   1.00
Ni334  Ni    0.62165   0.62165   0.56048   0.00000  Uiso   1.00
Ni335  Ni    0.62165   0.37835   0.43952   0.00000  Uiso   1.00
Ni336  Ni    0.37835   0.62165   0.43952   0.00000  Uiso   1.00
Ni337  Ni    0.62165   0.37835   0.56048   0.00000  Uiso   1.00
Ni338  Ni    0.37835   0.62165   0.56048   0.00000  Uiso   1.00
Ni339  Ni    0.37835   0.37835   0.43952   0.00000  Uiso   1.00
Ni340  Ni    0.37835   0.37835   0.56048   0.00000  Uiso   1.00
Ni341  Ni    0.56083   0.59124   0.34879   0.00000  Uiso   1.00
Ni342  Ni    0.59124   0.56083   0.34879   0.00000  Uiso   1.00
Ni343  Ni    0.59124   0.43917   0.34879   0.00000  Uiso   1.00
Ni344  Ni    0.43917   0.59124   0.34879   0.00000  Uiso   1.00
Ni345  Ni    0.56083   0.40876   0.34879   0.00000  Uiso   1.00
Ni346  Ni    0.40876   0.56083   0.34879   0.00000  Uiso   1.00
Ni347  Ni    0.56083   0.59124   0.65121   0.00000  Uiso   1.00
Ni348  Ni    0.59124   0.56083   0.65121   0.00000  Uiso   1.00
Ni349  Ni    0.40876   0.43917   0.34879   0.00000  Uiso   1.00
Ni350  Ni    0.43917   0.40876   0.34879   0.00000  Uiso   1.00
Ni351  Ni    0.59124   0.43917   0.65121   0.00000  Uiso   1.00
Ni352  Ni    0.43917   0.59124   0.65121   0.00000  Uiso   1.00
Ni353  Ni    0.56083   0.40876   0.65121   0.00000  Uiso   1.00
Ni354  Ni    0.40876   0.56083   0.65121   0.00000  Uiso   1.00
Ni355  Ni    0.43917   0.40876   0.65121   0.00000  Uiso   1.00
Ni356  Ni    0.40876   0.43917   0.65121   0.00000  Uiso   1.00
Ni357  Ni    0.56083   0.65207   0.40928   0.00000  Uiso   1.00
Ni358  Ni    0.65207   0.56083   0.40928   0.00000  Uiso   1.00
Ni359  Ni    0.65207   0.43917   0.40928   0.00000  Uiso   1.00
Ni360  Ni    0.43917   0.65207   0.40928   0.00000  Uiso   1.00
Ni361  Ni    0.56083   0.65207   0.59072   0.00000  Uiso   1.00
Ni362  Ni    0.65207   0.56083   0.59072   0.00000  Uiso   1.00
Ni363  Ni    0.65207   0.43917   0.59072   0.00000  Uiso   1.00
Ni364  Ni    0.43917   0.65207   0.59072   0.00000  Uiso   1.00
Ni365  Ni    0.56083   0.34793   0.40928   0.00000  Uiso   1.00
Ni366  Ni    0.34793   0.56083   0.40928   0.00000  Uiso   1.00
Ni367  Ni    0.43917   0.34793   0.40928   0.00000  Uiso   1.00
Ni368  Ni    0.34793   0.43917   0.40928   0.00000  Uiso   1.00
Ni369  Ni    0.56083   0.34793   0.59072   0.00000  Uiso   1.00
Ni370  Ni    0.34793   0.56083   0.59072   0.00000  Uiso   1.00
Ni371  Ni    0.43917   0.34793   0.59072   0.00000  Uiso   1.00
Ni372  Ni    0.34793   0.43917   0.59072   0.00000  Uiso   1.00
Ni373  Ni    0.53041   0.68248   0.46976   0.00000  Uiso   1.00
Ni374  Ni    0.68248   0.53041   0.46976   0.00000  Uiso   1.00
Ni375  Ni    0.53041   0.68248   0.53024   0.00000  Uiso   1.00
Ni376  Ni    0.68248   0.53041   0.53024   0.00000  Uiso   1.00
Ni377  Ni    0.68248   0.46959   0.46976   0.00000  Uiso   1.00
Ni378  Ni    0.46959   0.68248   0.46976   0.00000  Uiso   1.00
Ni379  Ni    0.46959   0.68248   0.53024   0.00000  Uiso   1.00
Ni380  Ni    0.68248   0.46959   0.53024   0.00000  Uiso   1.00
Ni381  Ni    0.53041   0.31752   0.46976   0.00000  Uiso   1.00
Ni382  Ni    0.31752   0.53041   0.46976   0.00000  Uiso   1.00
Ni383  Ni    0.53041   0.31752   0.53024   0.00000  Uiso   1.00
Ni384  Ni    0.31752   0.53041   0.53024   0.00000  Uiso   1.00
Ni385  Ni    0.31752   0.46959   0.46976   0.00000  Uiso   1.00
Ni386  Ni    0.46959   0.31752   0.46976   0.00000  Uiso   1.00
Ni387  Ni    0.31752   0.46959   0.53024   0.00000  Uiso   1.00
Ni388  Ni    0.46959   0.31752   0.53024   0.00000  Uiso   1.00
Ni389  Ni    0.50000   0.56083   0.31855   0.00000  Uiso   1.00
Ni390  Ni    0.56083   0.50000   0.31855   0.00000  Uiso   1.00
Ni391  Ni    0.43917   0.50000   0.31855   0.00000  Uiso   1.00
Ni392  Ni    0.50000   0.43917   0.31855   0.00000  Uiso   1.00
Ni393  Ni    0.50000   0.56083   0.68145   0.00000  Uiso   1.00
Ni394  Ni    0.56083   0.50000   0.68145   0.00000  Uiso   1.00
Ni395  Ni    0.43917   0.50000   0.68145   0.00000  Uiso   1.00
Ni396  Ni    0.50000   0.43917   0.68145   0.00000  Uiso   1.00
Ni397  Ni    0.50000   0.68248   0.43952   0.00000  Uiso   1.00
Ni398  Ni    0.68248   0.50000   0.43952   0.00000  Uiso   1.00
Ni399  Ni    0.50000   0.68248   0.56048   0.00000  Uiso   1.00
Ni400  Ni    0.68248   0.50000   0.56048   0.00000  Uiso   1.00
Ni401  Ni    0.31752   0.50000   0.43952   0.00000  Uiso   1.00
Ni402  Ni    0.50000   0.31752   0.43952   0.00000  Uiso   1.00
Ni403  Ni    0.31752   0.50000   0.56048   0.00000  Uiso   1.00
Ni404  Ni    0.50000   0.31752   0.56048   0.00000  Uiso   1.00
Ni405  Ni    0.62165   0.53041   0.34879   0.00000  Uiso   1.00
Ni406  Ni    0.53041   0.62165   0.34879   0.00000  Uiso   1.00
Ni407  Ni    0.46959   0.62165   0.34879   0.00000  Uiso   1.00
Ni408  Ni    0.62165   0.46959   0.34879   0.00000  Uiso   1.00
Ni409  Ni    0.37835   0.53041   0.34879   0.00000  Uiso   1.00
Ni410  Ni    0.53041   0.37835   0.34879   0.00000  Uiso   1.00
Ni411  Ni    0.37835   0.46959   0.34879   0.00000  Uiso   1.00
Ni412  Ni    0.46959   0.37835   0.34879   0.00000  Uiso   1.00
Ni413  Ni    0.62165   0.53041   0.65121   0.00000  Uiso   1.00
Ni414  Ni    0.53041   0.62165   0.65121   0.00000  Uiso   1.00
Ni415  Ni    0.46959   0.62165   0.65121   0.00000  Uiso   1.00
Ni416  Ni    0.62165   0.46959   0.65121   0.00000  Uiso   1.00
Ni417  Ni    0.37835   0.53041   0.65121   0.00000  Uiso   1.00
Ni418  Ni    0.53041   0.37835   0.65121   0.00000  Uiso   1.00
Ni419  Ni    0.37835   0.46959   0.65121   0.00000  Uiso   1.00
Ni420  Ni    0.46959   0.37835   0.65121   0.00000  Uiso   1.00
Ni421  Ni    0.53041   0.65207   0.37903   0.00000  Uiso   1.00
Ni422  Ni    0.65207   0.53041   0.37903   0.00000  Uiso   1.00
Ni423  Ni    0.53041   0.65207   0.62097   0.00000  Uiso   1.00
Ni424  Ni    0.65207   0.53041   0.62097   0.00000  Uiso   1.00
Ni425  Ni    0.65207   0.46959   0.37903   0.00000  Uiso   1.00
Ni426  Ni    0.46959   0.65207   0.37903   0.00000  Uiso   1.00
Ni427  Ni    0.46959   0.65207   0.62097   0.00000  Uiso   1.00
Ni428  Ni    0.65207   0.46959   0.62097   0.00000  Uiso   1.00
Ni429  Ni    0.53041   0.34793   0.37903   0.00000  Uiso   1.00
Ni430  Ni    0.34793   0.53041   0.37903   0.00000  Uiso   1.00
Ni431  Ni    0.53041   0.34793   0.62097   0.00000  Uiso   1.00
Ni432  Ni    0.34793   0.53041   0.62097   0.00000  Uiso   1.00
Ni433  Ni    0.34793   0.46959   0.37903   0.00000  Uiso   1.00
Ni434  Ni    0.46959   0.34793   0.37903   0.00000  Uiso   1.00
Ni435  Ni    0.34793   0.46959   0.62097   0.00000  Uiso   1.00
Ni436  Ni    0.46959   0.34793   0.62097   0.00000  Uiso   1.00
Ni437  Ni    0.65207   0.62165   0.46976   0.00000  Uiso   1.00
Ni438  Ni    0.62165   0.65207   0.46976   0.00000  Uiso   1.00
Ni439  Ni    0.62165   0.65207   0.53024   0.00000  Uiso   1.00
Ni440  Ni    0.65207   0.62165   0.53024   0.00000  Uiso   1.00
Ni441  Ni    0.65207   0.37835   0.46976   0.00000  Uiso   1.00
Ni442  Ni    0.37835   0.65207   0.46976   0.00000  Uiso   1.00
Ni443  Ni    0.65207   0.37835   0.53024   0.00000  Uiso   1.00
Ni444  Ni    0.37835   0.65207   0.53024   0.00000  Uiso   1.00
Ni445  Ni    0.62165   0.34793   0.46976   0.00000  Uiso   1.00
Ni446  Ni    0.34793   0.62165   0.46976   0.00000  Uiso   1.00
Ni447  Ni    0.62165   0.34793   0.53024   0.00000  Uiso   1.00
Ni448  Ni    0.34793   0.62165   0.53024   0.00000  Uiso   1.00
Ni449  Ni    0.37835   0.34793   0.46976   0.00000  Uiso   1.00
Ni450  Ni    0.34793   0.37835   0.46976   0.00000  Uiso   1.00
Ni451  Ni    0.37835   0.34793   0.53024   0.00000  Uiso   1.00
Ni452  Ni    0.34793   0.37835   0.53024   0.00000  Uiso   1.00
Ni453  Ni    0.56083   0.56083   0.31855   0.00000  Uiso   1.00
Ni454  Ni    0.56083   0.43917   0.31855   0.00000  Uiso   1.00
Ni455  Ni    0.43917   0.56083   0.31855   0.00000  Uiso   1.00
Ni456  Ni    0.43917   0.43917   0.31855   0.00000  Uiso   1.00
Ni457  Ni    0.56083   0.56083   0.68145   0.00000  Uiso   1.00
Ni458  Ni    0.56083   0.43917   0.68145   0.00000  Uiso   1.00
Ni459  Ni    0.43917   0.56083   0.68145   0.00000  Uiso   1.00
Ni460  Ni    0.43917   0.43917   0.68145   0.00000  Uiso   1.00
Ni461  Ni    0.56083   0.68248   0.43952   0.00000  Uiso   1.00
Ni462  Ni    0.68248   0.56083   0.43952   0.00000  Uiso   1.00
Ni463  Ni    0.43917   0.68248   0.43952   0.00000  Uiso   1.00
Ni464  Ni    0.68248   0.43917   0.43952   0.00000  Uiso   1.00
Ni465  Ni    0.56083   0.68248   0.56048   0.00000  Uiso   1.00
Ni466  Ni    0.68248   0.56083   0.56048   0.00000  Uiso   1.00
Ni467  Ni    0.68248   0.43917   0.56048   0.00000  Uiso   1.00
Ni468  Ni    0.43917   0.68248   0.56048   0.00000  Uiso   1.00
Ni469  Ni    0.56083   0.31752   0.43952   0.00000  Uiso   1.00
Ni470  Ni    0.31752   0.56083   0.43952   0.00000  Uiso   1.00
Ni471  Ni    0.31752   0.43917   0.43952   0.00000  Uiso   1.00
Ni472  Ni    0.43917   0.31752   0.43952   0.00000  Uiso   1.00
Ni473  Ni    0.56083   0.31752   0.56048   0.00000  Uiso   1.00
Ni474  Ni    0.31752   0.56083   0.56048   0.00000  Uiso   1.00
Ni475  Ni    0.43917   0.31752   0.56048   0.00000  Uiso   1.00
Ni476  Ni    0.31752   0.43917   0.56048   0.00000  Uiso   1.00
Ni477  Ni    0.53041   0.68248   0.40928   0.00000  Uiso   1.00
Ni478  Ni    0.68248   0.53041   0.40928   0.00000  Uiso   1.00
Ni479  Ni    0.68248   0.46959   0.40928   0.00000  Uiso   1.00
Ni480  Ni    0.46959   0.68248   0.40928   0.00000  Uiso   1.00
Ni481  Ni    0.53041   0.68248   0.59072   0.00000  Uiso   1.00
Ni482  Ni    0.68248   0.53041   0.59072   0.00000  Uiso   1.00
Ni483  Ni    0.31752   0.53041   0.40928   0.00000  Uiso   1.00
Ni484  Ni    0.53041   0.31752   0.40928   0.00000  Uiso   1.00
Ni485  Ni    0.46959   0.68248   0.59072   0.00000  Uiso   1.00
Ni486  Ni    0.68248   0.46959   0.59072   0.00000  Uiso   1.00
Ni487  Ni    0.31752   0.46959   0.40928   0.00000  Uiso   1.00
Ni488  Ni    0.46959   0.31752   0.40928   0.00000  Uiso   1.00
Ni489  Ni    0.53041   0.31752   0.59072   0.00000  Uiso   1.00
Ni490  Ni    0.31752   0.53041   0.59072   0.00000  Uiso   1.00
Ni491  Ni    0.31752   0.46959   0.59072   0.00000  Uiso   1.00
Ni492  Ni    0.46959   0.31752   0.59072   0.00000  Uiso   1.00
Ni493  Ni    0.59124   0.68248   0.46976   0.00000  Uiso   1.00
Ni494  Ni    0.68248   0.59124   0.46976   0.00000  Uiso   1.00
Ni495  Ni    0.68248   0.59124   0.53024   0.00000  Uiso   1.00
Ni496  Ni    0.59124   0.68248   0.53024   0.00000  Uiso   1.00
Ni497  Ni    0.31752   0.59124   0.46976   0.00000  Uiso   1.00
Ni498  Ni    0.59124   0.31752   0.46976   0.00000  Uiso   1.00
Ni499  Ni    0.68248   0.40876   0.46976   0.00000  Uiso   1.00
Ni500  Ni    0.40876   0.68248   0.46976   0.00000  Uiso   1.00
Ni501  Ni    0.59124   0.31752   0.53024   0.00000  Uiso   1.00
Ni502  Ni    0.31752   0.59124   0.53024   0.00000  Uiso   1.00
Ni503  Ni    0.68248   0.40876   0.53024   0.00000  Uiso   1.00
Ni504  Ni    0.40876   0.68248   0.53024   0.00000  Uiso   1.00
Ni505  Ni    0.40876   0.31752   0.46976   0.00000  Uiso   1.00
Ni506  Ni    0.31752   0.40876   0.46976   0.00000  Uiso   1.00
Ni507  Ni    0.31752   0.40876   0.53024   0.00000  Uiso   1.00
Ni508  Ni    0.40876   0.31752   0.53024   0.00000  Uiso   1.00
Ni509  Ni    0.50000   0.53041   0.28831   0.00000  Uiso   1.00
Ni510  Ni    0.53041   0.50000   0.28831   0.00000  Uiso   1.00
Ni511  Ni    0.46959   0.50000   0.28831   0.00000  Uiso   1.00
Ni512  Ni    0.50000   0.46959   0.28831   0.00000  Uiso   1.00
Ni513  Ni    0.50000   0.53041   0.71169   0.00000  Uiso   1.00
Ni514  Ni    0.53041   0.50000   0.71169   0.00000  Uiso   1.00
Ni515  Ni    0.50000   0.46959   0.71169   0.00000  Uiso   1.00
Ni516  Ni    0.46959   0.50000   0.71169   0.00000  Uiso   1.00
Ni517  Ni    0.65207   0.50000   0.34879   0.00000  Uiso   1.00
Ni518  Ni    0.50000   0.65207   0.34879   0.00000  Uiso   1.00
Ni519  Ni    0.59124   0.62165   0.34879   0.00000  Uiso   1.00
Ni520  Ni    0.62165   0.59124   0.34879   0.00000  Uiso   1.00
Ni521  Ni    0.37835   0.59124   0.34879   0.00000  Uiso   1.00
Ni522  Ni    0.59124   0.37835   0.34879   0.00000  Uiso   1.00
Ni523  Ni    0.62165   0.40876   0.34879   0.00000  Uiso   1.00
Ni524  Ni    0.40876   0.62165   0.34879   0.00000  Uiso   1.00
Ni525  Ni    0.50000   0.65207   0.65121   0.00000  Uiso   1.00
Ni526  Ni    0.65207   0.50000   0.65121   0.00000  Uiso   1.00
Ni527  Ni    0.59124   0.62165   0.65121   0.00000  Uiso   1.00
Ni528  Ni    0.62165   0.59124   0.65121   0.00000  Uiso   1.00
Ni529  Ni    0.37835   0.40876   0.34879   0.00000  Uiso   1.00
Ni530  Ni    0.40876   0.37835   0.34879   0.00000  Uiso   1.00
Ni531  Ni    0.50000   0.34793   0.34879   0.00000  Uiso   1.00
Ni532  Ni    0.34793   0.50000   0.34879   0.00000  Uiso   1.00
Ni533  Ni    0.37835   0.59124   0.65121   0.00000  Uiso   1.00
Ni534  Ni    0.59124   0.37835   0.65121   0.00000  Uiso   1.00
Ni535  Ni    0.62165   0.40876   0.65121   0.00000  Uiso   1.00
Ni536  Ni    0.40876   0.62165   0.65121   0.00000  Uiso   1.00
Ni537  Ni    0.37835   0.40876   0.65121   0.00000  Uiso   1.00
Ni538  Ni    0.40876   0.37835   0.65121   0.00000  Uiso   1.00
Ni539  Ni    0.34793   0.50000   0.65121   0.00000  Uiso   1.00
Ni540  Ni    0.50000   0.34793   0.65121   0.00000  Uiso   1.00
Ni541  Ni    0.65207   0.59124   0.37903   0.00000  Uiso   1.00
Ni542  Ni    0.59124   0.65207   0.37903   0.00000  Uiso   1.00
Ni543  Ni    0.59124   0.65207   0.62097   0.00000  Uiso   1.00
Ni544  Ni    0.65207   0.59124   0.62097   0.00000  Uiso   1.00
Ni545  Ni    0.40876   0.65207   0.37903   0.00000  Uiso   1.00
Ni546  Ni    0.65207   0.40876   0.37903   0.00000  Uiso   1.00
Ni547  Ni    0.65207   0.40876   0.62097   0.00000  Uiso   1.00
Ni548  Ni    0.40876   0.65207   0.62097   0.00000  Uiso   1.00
Ni549  Ni    0.59124   0.34793   0.37903   0.00000  Uiso   1.00
Ni550  Ni    0.34793   0.59124   0.37903   0.00000  Uiso   1.00
Ni551  Ni    0.59124   0.34793   0.62097   0.00000  Uiso   1.00
Ni552  Ni    0.34793   0.59124   0.62097   0.00000  Uiso   1.00
Ni553  Ni    0.40876   0.34793   0.37903   0.00000  Uiso   1.00
Ni554  Ni    0.34793   0.40876   0.37903   0.00000  Uiso   1.00
Ni555  Ni    0.40876   0.34793   0.62097   0.00000  Uiso   1.00
Ni556  Ni    0.34793   0.40876   0.62097   0.00000  Uiso   1.00
Ni557  Ni    0.62165   0.65207   0.40928   0.00000  Uiso   1.00
Ni558  Ni    0.65207   0.62165   0.40928   0.00000  Uiso   1.00
Ni559  Ni    0.65207   0.37835   0.40928   0.00000  Uiso   1.00
Ni560  Ni    0.37835   0.65207   0.40928   0.00000  Uiso   1.00
Ni561  Ni    0.65207   0.62165   0.59072   0.00000  Uiso   1.00
Ni562  Ni    0.62165   0.65207   0.59072   0.00000  Uiso   1.00
Ni563  Ni    0.65207   0.37835   0.59072   0.00000  Uiso   1.00
Ni564  Ni    0.37835   0.65207   0.59072   0.00000  Uiso   1.00
Ni565  Ni    0.62165   0.34793   0.40928   0.00000  Uiso   1.00
Ni566  Ni    0.34793   0.62165   0.40928   0.00000  Uiso   1.00
Ni567  Ni    0.37835   0.34793   0.40928   0.00000  Uiso   1.00
Ni568  Ni    0.34793   0.37835   0.40928   0.00000  Uiso   1.00
Ni569  Ni    0.62165   0.34793   0.59072   0.00000  Uiso   1.00
Ni570  Ni    0.34793   0.62165   0.59072   0.00000  Uiso   1.00
Ni571  Ni    0.37835   0.34793   0.59072   0.00000  Uiso   1.00
Ni572  Ni    0.34793   0.37835   0.59072   0.00000  Uiso   1.00
Ni573  Ni    0.71289   0.50000   0.46976   0.00000  Uiso   1.00
Ni574  Ni    0.50000   0.71289   0.46976   0.00000  Uiso   1.00
Ni575  Ni    0.71289   0.50000   0.53024   0.00000  Uiso   1.00
Ni576  Ni    0.50000   0.71289   0.53024   0.00000  Uiso   1.00
Ni577  Ni    0.50000   0.28711   0.46976   0.00000  Uiso   1.00
Ni578  Ni    0.28711   0.50000   0.46976   0.00000  Uiso   1.00
Ni579  Ni    0.50000   0.28711   0.53024   0.00000  Uiso   1.00
Ni580  Ni    0.28711   0.50000   0.53024   0.00000  Uiso   1.00
Ni581  Ni    0.65207   0.65207   0.50000   0.00000  Uiso   1.00
Ni582  Ni    0.53041   0.71289   0.50000   0.00000  Uiso   1.00
Ni583  Ni    0.71289   0.53041   0.50000   0.00000  Uiso   1.00
Ni584  Ni    0.71289   0.46959   0.50000   0.00000  Uiso   1.00
Ni585  Ni    0.46959   0.71289   0.50000   0.00000  Uiso   1.00
Ni586  Ni    0.65207   0.34793   0.50000   0.00000  Uiso   1.00
Ni587  Ni    0.34793   0.65207   0.50000   0.00000  Uiso   1.00
Ni588  Ni    0.53041   0.28711   0.50000   0.00000  Uiso   1.00
Ni589  Ni    0.28711   0.53041   0.50000   0.00000  Uiso   1.00
Ni590  Ni    0.46959   0.28711   0.50000   0.00000  Uiso   1.00
Ni591  Ni    0.28711   0.46959   0.50000   0.00000  Uiso   1.00
Ni592  Ni    0.34793   0.34793   0.50000   0.00000  Uiso   1.00
Ni593  Ni    0.62165   0.50000   0.31855   0.00000  Uiso   1.00
Ni594  Ni    0.50000   0.62165   0.31855   0.00000  Uiso   1.00
Ni595  Ni    0.37835   0.50000   0.31855   0.00000  Uiso   1.00
Ni596  Ni    0.50000   0.37835   0.31855   0.00000  Uiso   1.00
Ni597  Ni    0.62165   0.50000   0.68145   0.00000  Uiso   1.00
Ni598  Ni    0.50000   0.62165   0.68145   0.00000  Uiso   1.00
Ni599  Ni    0.37835   0.50000   0.68145   0.00000  Uiso   1.00
Ni600  Ni    0.50000   0.37835   0.68145   0.00000  Uiso   1.00
Ni601  Ni    0.56083   0.53041   0.28831   0.00000  Uiso   1.00
Ni602  Ni    0.53041   0.56083   0.28831   0.00000  Uiso   1.00
Ni603  Ni    0.43917   0.53041   0.28831   0.00000  Uiso   1.00
Ni604  Ni    0.53041   0.43917   0.28831   0.00000  Uiso   1.00
Ni605  Ni    0.56083   0.46959   0.28831   0.00000  Uiso   1.00
Ni606  Ni    0.46959   0.56083   0.28831   0.00000  Uiso   1.00
Ni607  Ni    0.46959   0.43917   0.28831   0.00000  Uiso   1.00
Ni608  Ni    0.43917   0.46959   0.28831   0.00000  Uiso   1.00
Ni609  Ni    0.53041   0.56083   0.71169   0.00000  Uiso   1.00
Ni610  Ni    0.56083   0.53041   0.71169   0.00000  Uiso   1.00
Ni611  Ni    0.53041   0.43917   0.71169   0.00000  Uiso   1.00
Ni612  Ni    0.43917   0.53041   0.71169   0.00000  Uiso   1.00
Ni613  Ni    0.56083   0.46959   0.71169   0.00000  Uiso   1.00
Ni614  Ni    0.46959   0.56083   0.71169   0.00000  Uiso   1.00
Ni615  Ni    0.43917   0.46959   0.71169   0.00000  Uiso   1.00
Ni616  Ni    0.46959   0.43917   0.71169   0.00000  Uiso   1.00
Ni617  Ni    0.56083   0.65207   0.34879   0.00000  Uiso   1.00
Ni618  Ni    0.65207   0.56083   0.34879   0.00000  Uiso   1.00
Ni619  Ni    0.65207   0.43917   0.34879   0.00000  Uiso   1.00
Ni620  Ni    0.43917   0.65207   0.34879   0.00000  Uiso   1.00
Ni621  Ni    0.56083   0.65207   0.65121   0.00000  Uiso   1.00
Ni622  Ni    0.65207   0.56083   0.65121   0.00000  Uiso   1.00
Ni623  Ni    0.65207   0.43917   0.65121   0.00000  Uiso   1.00
Ni624  Ni    0.43917   0.65207   0.65121   0.00000  Uiso   1.00
Ni625  Ni    0.56083   0.34793   0.34879   0.00000  Uiso   1.00
Ni626  Ni    0.34793   0.56083   0.34879   0.00000  Uiso   1.00
Ni627  Ni    0.43917   0.34793   0.34879   0.00000  Uiso   1.00
Ni628  Ni    0.34793   0.43917   0.34879   0.00000  Uiso   1.00
Ni629  Ni    0.56083   0.34793   0.65121   0.00000  Uiso   1.00
Ni630  Ni    0.34793   0.56083   0.65121   0.00000  Uiso   1.00
Ni631  Ni    0.43917   0.34793   0.65121   0.00000  Uiso   1.00
Ni632  Ni    0.34793   0.43917   0.65121   0.00000  Uiso   1.00
Ni633  Ni    0.68248   0.59124   0.40928   0.00000  Uiso   1.00
Ni634  Ni    0.59124   0.68248   0.40928   0.00000  Uiso   1.00
Ni635  Ni    0.59124   0.68248   0.59072   0.00000  Uiso   1.00
Ni636  Ni    0.68248   0.59124   0.59072   0.00000  Uiso   1.00
Ni637  Ni    0.31752   0.59124   0.40928   0.00000  Uiso   1.00
Ni638  Ni    0.59124   0.31752   0.40928   0.00000  Uiso   1.00
Ni639  Ni    0.68248   0.40876   0.40928   0.00000  Uiso   1.00
Ni640  Ni    0.40876   0.68248   0.40928   0.00000  Uiso   1.00
Ni641  Ni    0.31752   0.59124   0.59072   0.00000  Uiso   1.00
Ni642  Ni    0.59124   0.31752   0.59072   0.00000  Uiso   1.00
Ni643  Ni    0.40876   0.68248   0.59072   0.00000  Uiso   1.00
Ni644  Ni    0.68248   0.40876   0.59072   0.00000  Uiso   1.00
Ni645  Ni    0.31752   0.40876   0.40928   0.00000  Uiso   1.00
Ni646  Ni    0.40876   0.31752   0.40928   0.00000  Uiso   1.00
Ni647  Ni    0.31752   0.40876   0.59072   0.00000  Uiso   1.00
Ni648  Ni    0.40876   0.31752   0.59072   0.00000  Uiso   1.00
Ni649  Ni    0.56083   0.71289   0.46976   0.00000  Uiso   1.00
Ni650  Ni    0.71289   0.56083   0.46976   0.00000  Uiso   1.00
Ni651  Ni    0.56083   0.71289   0.53024   0.00000  Uiso   1.00
Ni652  Ni    0.71289   0.56083   0.53024   0.00000  Uiso   1.00
Ni653  Ni    0.71289   0.43917   0.46976   0.00000  Uiso   1.00
Ni654  Ni    0.43917   0.71289   0.46976   0.00000  Uiso   1.00
Ni655  Ni    0.43917   0.71289   0.53024   0.00000  Uiso   1.00
Ni656  Ni    0.71289   0.43917   0.53024   0.00000  Uiso   1.00
Ni657  Ni    0.56083   0.28711   0.46976   0.00000  Uiso   1.00
Ni658  Ni    0.28711   0.56083   0.46976   0.00000  Uiso   1.00
Ni659  Ni    0.56083   0.28711   0.53024   0.00000  Uiso   1.00
Ni660  Ni    0.28711   0.56083   0.53024   0.00000  Uiso   1.00
Ni661  Ni    0.43917   0.28711   0.46976   0.00000  Uiso   1.00
Ni662  Ni    0.28711   0.43917   0.46976   0.00000  Uiso   1.00
Ni663  Ni    0.43917   0.28711   0.53024   0.00000  Uiso   1.00
Ni664  Ni    0.28711   0.43917   0.53024   0.00000  Uiso   1.00
Ni665  Ni    0.56083   0.62165   0.31855   0.00000  Uiso   1.00
Ni666  Ni    0.62165   0.56083   0.31855   0.00000  Uiso   1.00
Ni667  Ni    0.62165   0.43917   0.31855   0.00000  Uiso   1.00
Ni668  Ni    0.43917   0.62165   0.31855   0.00000  Uiso   1.00
Ni669  Ni    0.56083   0.37835   0.31855   0.00000  Uiso   1.00
Ni670  Ni    0.37835   0.56083   0.31855   0.00000  Uiso   1.00
Ni671  Ni    0.43917   0.37835   0.31855   0.00000  Uiso   1.00
Ni672  Ni    0.37835   0.43917   0.31855   0.00000  Uiso   1.00
Ni673  Ni    0.56083   0.62165   0.68145   0.00000  Uiso   1.00
Ni674  Ni    0.62165   0.56083   0.68145   0.00000  Uiso   1.00
Ni675  Ni    0.43917   0.62165   0.68145   0.00000  Uiso   1.00
Ni676  Ni    0.62165   0.43917   0.68145   0.00000  Uiso   1.00
Ni677  Ni    0.56083   0.37835   0.68145   0.00000  Uiso   1.00
Ni678  Ni    0.37835   0.56083   0.68145   0.00000  Uiso   1.00
Ni679  Ni    0.37835   0.43917   0.68145   0.00000  Uiso   1.00
Ni680  Ni    0.43917   0.37835   0.68145   0.00000  Uiso   1.00
Ni681  Ni    0.68248   0.62165   0.43952   0.00000  Uiso   1.00
Ni682  Ni    0.62165   0.68248   0.43952   0.00000  Uiso   1.00
Ni683  Ni    0.68248   0.62165   0.56048   0.00000  Uiso   1.00
Ni684  Ni    0.62165   0.68248   0.56048   0.00000  Uiso   1.00
Ni685  Ni    0.68248   0.37835   0.43952   0.00000  Uiso   1.00
Ni686  Ni    0.37835   0.68248   0.43952   0.00000  Uiso   1.00
Ni687  Ni    0.62165   0.31752   0.43952   0.00000  Uiso   1.00
Ni688  Ni    0.31752   0.62165   0.43952   0.00000  Uiso   1.00
Ni689  Ni    0.68248   0.37835   0.56048   0.00000  Uiso   1.00
Ni690  Ni    0.37835   0.68248   0.56048   0.00000  Uiso   1.00
Ni691  Ni    0.62165   0.31752   0.56048   0.00000  Uiso   1.00
Ni692  Ni    0.31752   0.62165   0.56048   0.00000  Uiso   1.00
Ni693  Ni    0.37835   0.31752   0.43952   0.00000  Uiso   1.00
Ni694  Ni    0.31752   0.37835   0.43952   0.00000  Uiso   1.00
Ni695  Ni    0.37835   0.31752   0.56048   0.00000  Uiso   1.00
Ni696  Ni    0.31752   0.37835   0.56048   0.00000  Uiso   1.00
Ni697  Ni    0.50000   0.59124   0.28831   0.00000  Uiso   1.00
Ni698  Ni    0.59124   0.50000   0.28831   0.00000  Uiso   1.00
Ni699  Ni    0.40876   0.50000   0.28831   0.00000  Uiso   1.00
Ni700  Ni    0.50000   0.40876   0.28831   0.00000  Uiso   1.00
Ni701  Ni    0.59124   0.50000   0.71169   0.00000  Uiso   1.00
Ni702  Ni    0.50000   0.59124   0.71169   0.00000  Uiso   1.00
Ni703  Ni    0.40876   0.50000   0.71169   0.00000  Uiso   1.00
Ni704  Ni    0.50000   0.40876   0.71169   0.00000  Uiso   1.00
Ni705  Ni    0.71289   0.50000   0.40928   0.00000  Uiso   1.00
Ni706  Ni    0.50000   0.71289   0.40928   0.00000  Uiso   1.00
Ni707  Ni    0.71289   0.50000   0.59072   0.00000  Uiso   1.00
Ni708  Ni    0.50000   0.71289   0.59072   0.00000  Uiso   1.00
Ni709  Ni    0.50000   0.28711   0.40928   0.00000  Uiso   1.00
Ni710  Ni    0.28711   0.50000   0.40928   0.00000  Uiso   1.00
Ni711  Ni    0.50000   0.28711   0.59072   0.00000  Uiso   1.00
Ni712  Ni    0.28711   0.50000   0.59072   0.00000  Uiso   1.00
Ni713  Ni    0.71289   0.59124   0.50000   0.00000  Uiso   1.00
Ni714  Ni    0.59124   0.71289   0.50000   0.00000  Uiso   1.00
Ni715  Ni    0.71289   0.40876   0.50000   0.00000  Uiso   1.00
Ni716  Ni    0.40876   0.71289   0.50000   0.00000  Uiso   1.00
Ni717  Ni    0.59124   0.28711   0.50000   0.00000  Uiso   1.00
Ni718  Ni    0.28711   0.59124   0.50000   0.00000  Uiso   1.00
Ni719  Ni    0.40876   0.28711   0.50000   0.00000  Uiso   1.00
Ni720  Ni    0.28711   0.40876   0.50000   0.00000  Uiso   1.00
Ni721  Ni    0.56083   0.59124   0.28831   0.00000  Uiso   1.00
Ni722  Ni    0.59124   0.56083   0.28831   0.00000  Uiso   1.00
Ni723  Ni    0.59124   0.43917   0.28831   0.00000  Uiso   1.00
Ni724  Ni    0.43917   0.59124   0.28831   0.00000  Uiso   1.00
Ni725  Ni    0.56083   0.40876   0.28831   0.00000  Uiso   1.00
Ni726  Ni    0.40876   0.56083   0.28831   0.00000  Uiso   1.00
Ni727  Ni    0.43917   0.40876   0.28831   0.00000  Uiso   1.00
Ni728  Ni    0.40876   0.43917   0.28831   0.00000  Uiso   1.00
Ni729  Ni    0.56083   0.59124   0.71169   0.00000  Uiso   1.00
Ni730  Ni    0.59124   0.56083   0.71169   0.00000  Uiso   1.00
Ni731  Ni    0.59124   0.43917   0.71169   0.00000  Uiso   1.00
Ni732  Ni    0.43917   0.59124   0.71169   0.00000  Uiso   1.00
Ni733  Ni    0.56083   0.40876   0.71169   0.00000  Uiso   1.00
Ni734  Ni    0.40876   0.56083   0.71169   0.00000  Uiso   1.00
Ni735  Ni    0.43917   0.40876   0.71169   0.00000  Uiso   1.00
Ni736  Ni    0.40876   0.43917   0.71169   0.00000  Uiso   1.00
Ni737  Ni    0.53041   0.68248   0.34879   0.00000  Uiso   1.00
Ni738  Ni    0.68248   0.53041   0.34879   0.00000  Uiso   1.00
Ni739  Ni    0.46959   0.68248   0.34879   0.00000  Uiso   1.00
Ni740  Ni    0.68248   0.46959   0.34879   0.00000  Uiso   1.00
Ni741  Ni    0.53041   0.31752   0.34879   0.00000  Uiso   1.00
Ni742  Ni    0.31752   0.53041   0.34879   0.00000  Uiso   1.00
Ni743  Ni    0.53041   0.68248   0.65121   0.00000  Uiso   1.00
Ni744  Ni    0.68248   0.53041   0.65121   0.00000  Uiso   1.00
Ni745  Ni    0.31752   0.46959   0.34879   0.00000  Uiso   1.00
Ni746  Ni    0.46959   0.31752   0.34879   0.00000  Uiso   1.00
Ni747  Ni    0.46959   0.68248   0.65121   0.00000  Uiso   1.00
Ni748  Ni    0.68248   0.46959   0.65121   0.00000  Uiso   1.00
Ni749  Ni    0.53041   0.31752   0.65121   0.00000  Uiso   1.00
Ni750  Ni    0.31752   0.53041   0.65121   0.00000  Uiso   1.00
Ni751  Ni    0.31752   0.46959   0.65121   0.00000  Uiso   1.00
Ni752  Ni    0.46959   0.31752   0.65121   0.00000  Uiso   1.00
Ni753  Ni    0.56083   0.71289   0.40928   0.00000  Uiso   1.00
Ni754  Ni    0.71289   0.56083   0.40928   0.00000  Uiso   1.00
Ni755  Ni    0.71289   0.43917   0.40928   0.00000  Uiso   1.00
Ni756  Ni    0.43917   0.71289   0.40928   0.00000  Uiso   1.00
Ni757  Ni    0.71289   0.56083   0.59072   0.00000  Uiso   1.00
Ni758  Ni    0.56083   0.71289   0.59072   0.00000  Uiso   1.00
Ni759  Ni    0.71289   0.43917   0.59072   0.00000  Uiso   1.00
Ni760  Ni    0.43917   0.71289   0.59072   0.00000  Uiso   1.00
Ni761  Ni    0.56083   0.28711   0.40928   0.00000  Uiso   1.00
Ni762  Ni    0.28711   0.56083   0.40928   0.00000  Uiso   1.00
Ni763  Ni    0.43917   0.28711   0.40928   0.00000  Uiso   1.00
Ni764  Ni    0.28711   0.43917   0.40928   0.00000  Uiso   1.00
Ni765  Ni    0.56083   0.28711   0.59072   0.00000  Uiso   1.00
Ni766  Ni    0.28711   0.56083   0.59072   0.00000  Uiso   1.00
Ni767  Ni    0.43917   0.28711   0.59072   0.00000  Uiso   1.00
Ni768  Ni    0.28711   0.43917   0.59072   0.00000  Uiso   1.00
Ni769  Ni    0.68248   0.65207   0.46976   0.00000  Uiso   1.00
Ni770  Ni    0.65207   0.68248   0.46976   0.00000  Uiso   1.00
Ni771  Ni    0.68248   0.65207   0.53024   0.00000  Uiso   1.00
Ni772  Ni    0.65207   0.68248   0.53024   0.00000  Uiso   1.00
Ni773  Ni    0.31752   0.65207   0.46976   0.00000  Uiso   1.00
Ni774  Ni    0.65207   0.31752   0.46976   0.00000  Uiso   1.00
Ni775  Ni    0.65207   0.31752   0.53024   0.00000  Uiso   1.00
Ni776  Ni    0.31752   0.65207   0.53024   0.00000  Uiso   1.00
Ni777  Ni    0.68248   0.34793   0.46976   0.00000  Uiso   1.00
Ni778  Ni    0.34793   0.68248   0.46976   0.00000  Uiso   1.00
Ni779  Ni    0.68248   0.34793   0.53024   0.00000  Uiso   1.00
Ni780  Ni    0.34793   0.68248   0.53024   0.00000  Uiso   1.00
Ni781  Ni    0.31752   0.34793   0.46976   0.00000  Uiso   1.00
Ni782  Ni    0.34793   0.31752   0.46976   0.00000  Uiso   1.00
Ni783  Ni    0.31752   0.34793   0.53024   0.00000  Uiso   1.00
Ni784  Ni    0.34793   0.31752   0.53024   0.00000  Uiso   1.00
Ni785  Ni    0.53041   0.53041   0.25807   0.00000  Uiso   1.00
Ni786  Ni    0.53041   0.46959   0.25807   0.00000  Uiso   1.00
Ni787  Ni    0.46959   0.53041   0.25807   0.00000  Uiso   1.00
Ni788  Ni    0.53041   0.53041   0.74193   0.00000  Uiso   1.00
Ni789  Ni    0.46959   0.46959   0.25807   0.00000  Uiso   1.00
Ni790  Ni    0.53041   0.46959   0.74193   0.00000  Uiso   1.00
Ni791  Ni    0.46959   0.53041   0.74193   0.00000  Uiso   1.00
Ni792  Ni    0.46959   0.46959   0.74193   0.00000  Uiso   1.00
Ni793  Ni    0.53041   0.62165   0.28831   0.00000  Uiso   1.00
Ni794  Ni    0.62165   0.53041   0.28831   0.00000  Uiso   1.00
Ni795  Ni    0.62165   0.46959   0.28831   0.00000  Uiso   1.00
Ni796  Ni    0.46959   0.62165   0.28831   0.00000  Uiso   1.00
Ni797  Ni    0.53041   0.37835   0.28831   0.00000  Uiso   1.00
Ni798  Ni    0.37835   0.53041   0.28831   0.00000  Uiso   1.00
Ni799  Ni    0.37835   0.46959   0.28831   0.00000  Uiso   1.00
Ni800  Ni    0.46959   0.37835   0.28831   0.00000  Uiso   1.00
Ni801  Ni    0.53041   0.62165   0.71169   0.00000  Uiso   1.00
Ni802  Ni    0.62165   0.53041   0.71169   0.00000  Uiso   1.00
Ni803  Ni    0.62165   0.46959   0.71169   0.00000  Uiso   1.00
Ni804  Ni    0.46959   0.62165   0.71169   0.00000  Uiso   1.00
Ni805  Ni    0.53041   0.37835   0.71169   0.00000  Uiso   1.00
Ni806  Ni    0.37835   0.53041   0.71169   0.00000  Uiso   1.00
Ni807  Ni    0.37835   0.46959   0.71169   0.00000  Uiso   1.00
Ni808  Ni    0.46959   0.37835   0.71169   0.00000  Uiso   1.00
Ni809  Ni    0.62165   0.65207   0.34879   0.00000  Uiso   1.00
Ni810  Ni    0.65207   0.62165   0.34879   0.00000  Uiso   1.00
Ni811  Ni    0.65207   0.37835   0.34879   0.00000  Uiso   1.00
Ni812  Ni    0.37835   0.65207   0.34879   0.00000  Uiso   1.00
Ni813  Ni    0.62165   0.65207   0.65121   0.00000  Uiso   1.00
Ni814  Ni    0.65207   0.62165   0.65121   0.00000  Uiso   1.00
Ni815  Ni    0.62165   0.34793   0.34879   0.00000  Uiso   1.00
Ni816  Ni    0.34793   0.62165   0.34879   0.00000  Uiso   1.00
Ni817  Ni    0.65207   0.37835   0.65121   0.00000  Uiso   1.00
Ni818  Ni    0.37835   0.65207   0.65121   0.00000  Uiso   1.00
Ni819  Ni    0.37835   0.34793   0.34879   0.00000  Uiso   1.00
Ni820  Ni    0.34793   0.37835   0.34879   0.00000  Uiso   1.00
Ni821  Ni    0.62165   0.34793   0.65121   0.00000  Uiso   1.00
Ni822  Ni    0.34793   0.62165   0.65121   0.00000  Uiso   1.00
Ni823  Ni    0.37835   0.34793   0.65121   0.00000  Uiso   1.00
Ni824  Ni    0.34793   0.37835   0.65121   0.00000  Uiso   1.00
Ni825  Ni    0.65207   0.65207   0.37903   0.00000  Uiso   1.00
Ni826  Ni    0.65207   0.65207   0.62097   0.00000  Uiso   1.00
Ni827  Ni    0.53041   0.71289   0.37903   0.00000  Uiso   1.00
Ni828  Ni    0.71289   0.53041   0.37903   0.00000  Uiso   1.00
Ni829  Ni    0.53041   0.71289   0.62097   0.00000  Uiso   1.00
Ni830  Ni    0.71289   0.53041   0.62097   0.00000  Uiso   1.00
Ni831  Ni    0.71289   0.46959   0.37903   0.00000  Uiso   1.00
Ni832  Ni    0.46959   0.71289   0.37903   0.00000  Uiso   1.00
Ni833  Ni    0.71289   0.46959   0.62097   0.00000  Uiso   1.00
Ni834  Ni    0.46959   0.71289   0.62097   0.00000  Uiso   1.00
Ni835  Ni    0.65207   0.34793   0.37903   0.00000  Uiso   1.00
Ni836  Ni    0.34793   0.65207   0.37903   0.00000  Uiso   1.00
Ni837  Ni    0.65207   0.34793   0.62097   0.00000  Uiso   1.00
Ni838  Ni    0.34793   0.65207   0.62097   0.00000  Uiso   1.00
Ni839  Ni    0.53041   0.28711   0.37903   0.00000  Uiso   1.00
Ni840  Ni    0.28711   0.53041   0.37903   0.00000  Uiso   1.00
Ni841  Ni    0.53041   0.28711   0.62097   0.00000  Uiso   1.00
Ni842  Ni    0.28711   0.53041   0.62097   0.00000  Uiso   1.00
Ni843  Ni    0.46959   0.28711   0.37903   0.00000  Uiso   1.00
Ni844  Ni    0.28711   0.46959   0.37903   0.00000  Uiso   1.00
Ni845  Ni    0.46959   0.28711   0.62097   0.00000  Uiso   1.00
Ni846  Ni    0.28711   0.46959   0.62097   0.00000  Uiso   1.00
Ni847  Ni    0.34793   0.34793   0.37903   0.00000  Uiso   1.00
Ni848  Ni    0.34793   0.34793   0.62097   0.00000  Uiso   1.00
Ni849  Ni    0.62165   0.71289   0.46976   0.00000  Uiso   1.00
Ni850  Ni    0.71289   0.62165   0.46976   0.00000  Uiso   1.00
Ni851  Ni    0.62165   0.71289   0.53024   0.00000  Uiso   1.00
Ni852  Ni    0.71289   0.62165   0.53024   0.00000  Uiso   1.00
Ni853  Ni    0.71289   0.37835   0.46976   0.00000  Uiso   1.00
Ni854  Ni    0.37835   0.71289   0.46976   0.00000  Uiso   1.00
Ni855  Ni    0.53041   0.74330   0.46976   0.00000  Uiso   1.00
Ni856  Ni    0.74330   0.53041   0.46976   0.00000  Uiso   1.00
Ni857  Ni    0.71289   0.37835   0.53024   0.00000  Uiso   1.00
Ni858  Ni    0.37835   0.71289   0.53024   0.00000  Uiso   1.00
Ni859  Ni    0.53041   0.74330   0.53024   0.00000  Uiso   1.00
Ni860  Ni    0.74330   0.53041   0.53024   0.00000  Uiso   1.00
Ni861  Ni    0.74330   0.46959   0.46976   0.00000  Uiso   1.00
Ni862  Ni    0.46959   0.74330   0.46976   0.00000  Uiso   1.00
Ni863  Ni    0.46959   0.74330   0.53024   0.00000  Uiso   1.00
Ni864  Ni    0.74330   0.46959   0.53024   0.00000  Uiso   1.00
Ni865  Ni    0.53041   0.25670   0.46976   0.00000  Uiso   1.00
Ni866  Ni    0.25670   0.53041   0.46976   0.00000  Uiso   1.00
Ni867  Ni    0.53041   0.25670   0.53024   0.00000  Uiso   1.00
Ni868  Ni    0.25670   0.53041   0.53024   0.00000  Uiso   1.00
Ni869  Ni    0.46959   0.25670   0.46976   0.00000  Uiso   1.00
Ni870  Ni    0.25670   0.46959   0.46976   0.00000  Uiso   1.00
Ni871  Ni    0.62165   0.28711   0.46976   0.00000  Uiso   1.00
Ni872  Ni    0.28711   0.62165   0.46976   0.00000  Uiso   1.00
Ni873  Ni    0.46959   0.25670   0.53024   0.00000  Uiso   1.00
Ni874  Ni    0.25670   0.46959   0.53024   0.00000  Uiso   1.00
Ni875  Ni    0.62165   0.28711   0.53024   0.00000  Uiso   1.00
Ni876  Ni    0.28711   0.62165   0.53024   0.00000  Uiso   1.00
Ni877  Ni    0.37835   0.28711   0.46976   0.00000  Uiso   1.00
Ni878  Ni    0.28711   0.37835   0.46976   0.00000  Uiso   1.00
Ni879  Ni    0.37835   0.28711   0.53024   0.00000  Uiso   1.00
Ni880  Ni    0.28711   0.37835   0.53024   0.00000  Uiso   1.00
Ni881  Ni    0.62165   0.62165   0.31855   0.00000  Uiso   1.00
Ni882  Ni    0.62165   0.37835   0.31855   0.00000  Uiso   1.00
Ni883  Ni    0.37835   0.62165   0.31855   0.00000  Uiso   1.00
Ni884  Ni    0.37835   0.37835   0.31855   0.00000  Uiso   1.00
Ni885  Ni    0.62165   0.62165   0.68145   0.00000  Uiso   1.00
Ni886  Ni    0.62165   0.37835   0.68145   0.00000  Uiso   1.00
Ni887  Ni    0.37835   0.62165   0.68145   0.00000  Uiso   1.00
Ni888  Ni    0.37835   0.37835   0.68145   0.00000  Uiso   1.00
Ni889  Ni    0.74330   0.50000   0.43952   0.00000  Uiso   1.00
Ni890  Ni    0.50000   0.74330   0.43952   0.00000  Uiso   1.00
Ni891  Ni    0.50000   0.74330   0.56048   0.00000  Uiso   1.00
Ni892  Ni    0.74330   0.50000   0.56048   0.00000  Uiso   1.00
Ni893  Ni    0.50000   0.25670   0.43952   0.00000  Uiso   1.00
Ni894  Ni    0.25670   0.50000   0.43952   0.00000  Uiso   1.00
Ni895  Ni    0.50000   0.25670   0.56048   0.00000  Uiso   1.00
Ni896  Ni    0.25670   0.50000   0.56048   0.00000  Uiso   1.00
Ni897  Ni    0.59124   0.68248   0.34879   0.00000  Uiso   1.00
Ni898  Ni    0.68248   0.59124   0.34879   0.00000  Uiso   1.00
Ni899  Ni    0.59124   0.31752   0.34879   0.00000  Uiso   1.00
Ni900  Ni    0.31752   0.59124   0.34879   0.00000  Uiso   1.00
Ni901  Ni    0.68248   0.40876   0.34879   0.00000  Uiso   1.00
Ni902  Ni    0.40876   0.68248   0.34879   0.00000  Uiso   1.00
Ni903  Ni    0.59124   0.68248   0.65121   0.00000  Uiso   1.00
Ni904  Ni    0.68248   0.59124   0.65121   0.00000  Uiso   1.00
Ni905  Ni    0.31752   0.40876   0.34879   0.00000  Uiso   1.00
Ni906  Ni    0.40876   0.31752   0.34879   0.00000  Uiso   1.00
Ni907  Ni    0.59124   0.31752   0.65121   0.00000  Uiso   1.00
Ni908  Ni    0.31752   0.59124   0.65121   0.00000  Uiso   1.00
Ni909  Ni    0.68248   0.40876   0.65121   0.00000  Uiso   1.00
Ni910  Ni    0.40876   0.68248   0.65121   0.00000  Uiso   1.00
Ni911  Ni    0.31752   0.40876   0.65121   0.00000  Uiso   1.00
Ni912  Ni    0.40876   0.31752   0.65121   0.00000  Uiso   1.00
Ni913  Ni    0.65207   0.68248   0.40928   0.00000  Uiso   1.00
Ni914  Ni    0.68248   0.65207   0.40928   0.00000  Uiso   1.00
Ni915  Ni    0.65207   0.68248   0.59072   0.00000  Uiso   1.00
Ni916  Ni    0.68248   0.65207   0.59072   0.00000  Uiso   1.00
Ni917  Ni    0.31752   0.65207   0.40928   0.00000  Uiso   1.00
Ni918  Ni    0.65207   0.31752   0.40928   0.00000  Uiso   1.00
Ni919  Ni    0.31752   0.65207   0.59072   0.00000  Uiso   1.00
Ni920  Ni    0.65207   0.31752   0.59072   0.00000  Uiso   1.00
Ni921  Ni    0.68248   0.34793   0.40928   0.00000  Uiso   1.00
Ni922  Ni    0.34793   0.68248   0.40928   0.00000  Uiso   1.00
Ni923  Ni    0.68248   0.34793   0.59072   0.00000  Uiso   1.00
Ni924  Ni    0.34793   0.68248   0.59072   0.00000  Uiso   1.00
Ni925  Ni    0.31752   0.34793   0.40928   0.00000  Uiso   1.00
Ni926  Ni    0.34793   0.31752   0.40928   0.00000  Uiso   1.00
Ni927  Ni    0.31752   0.34793   0.59072   0.00000  Uiso   1.00
Ni928  Ni    0.34793   0.31752   0.59072   0.00000  Uiso   1.00
Ni929  Ni    0.68248   0.50000   0.31855   0.00000  Uiso   1.00
Ni930  Ni    0.50000   0.68248   0.31855   0.00000  Uiso   1.00
Ni931  Ni    0.31752   0.50000   0.31855   0.00000  Uiso   1.00
Ni932  Ni    0.50000   0.31752   0.31855   0.00000  Uiso   1.00
Ni933  Ni    0.50000   0.68248   0.68145   0.00000  Uiso   1.00
Ni934  Ni    0.68248   0.50000   0.68145   0.00000  Uiso   1.00
Ni935  Ni    0.50000   0.31752   0.68145   0.00000  Uiso   1.00
Ni936  Ni    0.31752   0.50000   0.68145   0.00000  Uiso   1.00
Ni937  Ni    0.56083   0.74330   0.43952   0.00000  Uiso   1.00
Ni938  Ni    0.74330   0.56083   0.43952   0.00000  Uiso   1.00
Ni939  Ni    0.74330   0.43917   0.43952   0.00000  Uiso   1.00
Ni940  Ni    0.43917   0.74330   0.43952   0.00000  Uiso   1.00
Ni941  Ni    0.56083   0.74330   0.56048   0.00000  Uiso   1.00
Ni942  Ni    0.74330   0.56083   0.56048   0.00000  Uiso   1.00
Ni943  Ni    0.74330   0.43917   0.56048   0.00000  Uiso   1.00
Ni944  Ni    0.43917   0.74330   0.56048   0.00000  Uiso   1.00
Ni945  Ni    0.56083   0.25670   0.43952   0.00000  Uiso   1.00
Ni946  Ni    0.25670   0.56083   0.43952   0.00000  Uiso   1.00
Ni947  Ni    0.43917   0.25670   0.43952   0.00000  Uiso   1.00
Ni948  Ni    0.25670   0.43917   0.43952   0.00000  Uiso   1.00
Ni949  Ni    0.56083   0.25670   0.56048   0.00000  Uiso   1.00
Ni950  Ni    0.25670   0.56083   0.56048   0.00000  Uiso   1.00
Ni951  Ni    0.43917   0.25670   0.56048   0.00000  Uiso   1.00
Ni952  Ni    0.25670   0.43917   0.56048   0.00000  Uiso   1.00
Ni953  Ni    0.53041   0.59124   0.25807   0.00000  Uiso   1.00
Ni954  Ni    0.59124   0.53041   0.25807   0.00000  Uiso   1.00
Ni955  Ni    0.59124   0.46959   0.25807   0.00000  Uiso   1.00
Ni956  Ni    0.46959   0.59124   0.25807   0.00000  Uiso   1.00
Ni957  Ni    0.53041   0.59124   0.74193   0.00000  Uiso   1.00
Ni958  Ni    0.59124   0.53041   0.74193   0.00000  Uiso   1.00
Ni959  Ni    0.46959   0.59124   0.74193   0.00000  Uiso   1.00
Ni960  Ni    0.59124   0.46959   0.74193   0.00000  Uiso   1.00
Ni961  Ni    0.40876   0.53041   0.25807   0.00000  Uiso   1.00
Ni962  Ni    0.53041   0.40876   0.25807   0.00000  Uiso   1.00
Ni963  Ni    0.40876   0.46959   0.25807   0.00000  Uiso   1.00
Ni964  Ni    0.46959   0.40876   0.25807   0.00000  Uiso   1.00
Ni965  Ni    0.53041   0.40876   0.74193   0.00000  Uiso   1.00
Ni966  Ni    0.40876   0.53041   0.74193   0.00000  Uiso   1.00
Ni967  Ni    0.40876   0.46959   0.74193   0.00000  Uiso   1.00
Ni968  Ni    0.46959   0.40876   0.74193   0.00000  Uiso   1.00
Ni969  Ni    0.50000   0.65207   0.28831   0.00000  Uiso   1.00
Ni970  Ni    0.65207   0.50000   0.28831   0.00000  Uiso   1.00
Ni971  Ni    0.62165   0.59124   0.28831   0.00000  Uiso   1.00
Ni972  Ni    0.59124   0.62165   0.28831   0.00000  Uiso   1.00
Ni973  Ni    0.59124   0.37835   0.28831   0.00000  Uiso   1.00
Ni974  Ni    0.37835   0.59124   0.28831   0.00000  Uiso   1.00
Ni975  Ni    0.62165   0.40876   0.28831   0.00000  Uiso   1.00
Ni976  Ni    0.40876   0.62165   0.28831   0.00000  Uiso   1.00
Ni977  Ni    0.65207   0.50000   0.71169   0.00000  Uiso   1.00
Ni978  Ni    0.50000   0.65207   0.71169   0.00000  Uiso   1.00
Ni979  Ni    0.59124   0.62165   0.71169   0.00000  Uiso   1.00
Ni980  Ni    0.62165   0.59124   0.71169   0.00000  Uiso   1.00
Ni981  Ni    0.40876   0.37835   0.28831   0.00000  Uiso   1.00
Ni982  Ni    0.37835   0.40876   0.28831   0.00000  Uiso   1.00
Ni983  Ni    0.50000   0.34793   0.28831   0.00000  Uiso   1.00
Ni984  Ni    0.34793   0.50000   0.28831   0.00000  Uiso   1.00
Ni985  Ni    0.59124   0.37835   0.71169   0.00000  Uiso   1.00
Ni986  Ni    0.37835   0.59124   0.71169   0.00000  Uiso   1.00
Ni987  Ni    0.62165   0.40876   0.71169   0.00000  Uiso   1.00
Ni988  Ni    0.40876   0.62165   0.71169   0.00000  Uiso   1.00
Ni989  Ni    0.37835   0.40876   0.71169   0.00000  Uiso   1.00
Ni990  Ni    0.40876   0.37835   0.71169   0.00000  Uiso   1.00
Ni991  Ni    0.34793   0.50000   0.71169   0.00000  Uiso   1.00
Ni992  Ni    0.50000   0.34793   0.71169   0.00000  Uiso   1.00
Ni993  Ni    0.71289   0.50000   0.34879   0.00000  Uiso   1.00
Ni994  Ni    0.50000   0.71289   0.34879   0.00000  Uiso   1.00
Ni995  Ni    0.71289   0.50000   0.65121   0.00000  Uiso   1.00
Ni996  Ni    0.50000   0.71289   0.65121   0.00000  Uiso   1.00
Ni997  Ni    0.50000   0.28711   0.34879   0.00000  Uiso   1.00
Ni998  Ni    0.28711   0.50000   0.34879   0.00000  Uiso   1.00
Ni999  Ni    0.50000   0.28711   0.65121   0.00000  Uiso   1.00
Ni1000 Ni    0.28711   0.50000   0.65121   0.00000  Uiso   1.00
Ni1001 Ni    0.71289   0.59124   0.37903   0.00000  Uiso   1.00
Ni1002 Ni    0.59124   0.71289   0.37903   0.00000  Uiso   1.00
Ni1003 Ni    0.71289   0.59124   0.62097   0.00000  Uiso   1.00
Ni1004 Ni    0.59124   0.71289   0.62097   0.00000  Uiso   1.00
Ni1005 Ni    0.71289   0.40876   0.37903   0.00000  Uiso   1.00
Ni1006 Ni    0.40876   0.71289   0.37903   0.00000  Uiso   1.00
Ni1007 Ni    0.71289   0.40876   0.62097   0.00000  Uiso   1.00
Ni1008 Ni    0.40876   0.71289   0.62097   0.00000  Uiso   1.00
Ni1009 Ni    0.59124   0.28711   0.37903   0.00000  Uiso   1.00
Ni1010 Ni    0.28711   0.59124   0.37903   0.00000  Uiso   1.00
Ni1011 Ni    0.59124   0.28711   0.62097   0.00000  Uiso   1.00
Ni1012 Ni    0.28711   0.59124   0.62097   0.00000  Uiso   1.00
Ni1013 Ni    0.40876   0.28711   0.37903   0.00000  Uiso   1.00
Ni1014 Ni    0.28711   0.40876   0.37903   0.00000  Uiso   1.00
Ni1015 Ni    0.40876   0.28711   0.62097   0.00000  Uiso   1.00
Ni1016 Ni    0.28711   0.40876   0.62097   0.00000  Uiso   1.00
Ni1017 Ni    0.71289   0.62165   0.40928   0.00000  Uiso   1.00
Ni1018 Ni    0.62165   0.71289   0.40928   0.00000  Uiso   1.00
Ni1019 Ni    0.71289   0.37835   0.40928   0.00000  Uiso   1.00
Ni1020 Ni    0.37835   0.71289   0.40928   0.00000  Uiso   1.00
Ni1021 Ni    0.71289   0.62165   0.59072   0.00000  Uiso   1.00
Ni1022 Ni    0.62165   0.71289   0.59072   0.00000  Uiso   1.00
Ni1023 Ni    0.74330   0.53041   0.40928   0.00000  Uiso   1.00
Ni1024 Ni    0.53041   0.74330   0.40928   0.00000  Uiso   1.00
Ni1025 Ni    0.74330   0.46959   0.40928   0.00000  Uiso   1.00
Ni1026 Ni    0.46959   0.74330   0.40928   0.00000  Uiso   1.00
Ni1027 Ni    0.71289   0.37835   0.59072   0.00000  Uiso   1.00
Ni1028 Ni    0.37835   0.71289   0.59072   0.00000  Uiso   1.00
Ni1029 Ni    0.53041   0.74330   0.59072   0.00000  Uiso   1.00
Ni1030 Ni    0.74330   0.53041   0.59072   0.00000  Uiso   1.00
Ni1031 Ni    0.74330   0.46959   0.59072   0.00000  Uiso   1.00
Ni1032 Ni    0.46959   0.74330   0.59072   0.00000  Uiso   1.00
Ni1033 Ni    0.53041   0.25670   0.40928   0.00000  Uiso   1.00
Ni1034 Ni    0.25670   0.53041   0.40928   0.00000  Uiso   1.00
Ni1035 Ni    0.46959   0.25670   0.40928   0.00000  Uiso   1.00
Ni1036 Ni    0.25670   0.46959   0.40928   0.00000  Uiso   1.00
Ni1037 Ni    0.62165   0.28711   0.40928   0.00000  Uiso   1.00
Ni1038 Ni    0.28711   0.62165   0.40928   0.00000  Uiso   1.00
Ni1039 Ni    0.53041   0.25670   0.59072   0.00000  Uiso   1.00
Ni1040 Ni    0.25670   0.53041   0.59072   0.00000  Uiso   1.00
Ni1041 Ni    0.46959   0.25670   0.59072   0.00000  Uiso   1.00
Ni1042 Ni    0.25670   0.46959   0.59072   0.00000  Uiso   1.00
Ni1043 Ni    0.37835   0.28711   0.40928   0.00000  Uiso   1.00
Ni1044 Ni    0.28711   0.37835   0.40928   0.00000  Uiso   1.00
Ni1045 Ni    0.62165   0.28711   0.59072   0.00000  Uiso   1.00
Ni1046 Ni    0.28711   0.62165   0.59072   0.00000  Uiso   1.00
Ni1047 Ni    0.37835   0.28711   0.59072   0.00000  Uiso   1.00
Ni1048 Ni    0.28711   0.37835   0.59072   0.00000  Uiso   1.00
Ni1049 Ni    0.74330   0.59124   0.46976   0.00000  Uiso   1.00
Ni1050 Ni    0.59124   0.74330   0.46976   0.00000  Uiso   1.00
Ni1051 Ni    0.74330   0.59124   0.53024   0.00000  Uiso   1.00
Ni1052 Ni    0.59124   0.74330   0.53024   0.00000  Uiso   1.00
Ni1053 Ni    0.74330   0.40876   0.46976   0.00000  Uiso   1.00
Ni1054 Ni    0.40876   0.74330   0.46976   0.00000  Uiso   1.00
Ni1055 Ni    0.59124   0.25670   0.46976   0.00000  Uiso   1.00
Ni1056 Ni    0.25670   0.59124   0.46976   0.00000  Uiso   1.00
Ni1057 Ni    0.74330   0.40876   0.53024   0.00000  Uiso   1.00
Ni1058 Ni    0.40876   0.74330   0.53024   0.00000  Uiso   1.00
Ni1059 Ni    0.59124   0.25670   0.53024   0.00000  Uiso   1.00
Ni1060 Ni    0.25670   0.59124   0.53024   0.00000  Uiso   1.00
Ni1061 Ni    0.40876   0.25670   0.46976   0.00000  Uiso   1.00
Ni1062 Ni    0.25670   0.40876   0.46976   0.00000  Uiso   1.00
Ni1063 Ni    0.40876   0.25670   0.53024   0.00000  Uiso   1.00
Ni1064 Ni    0.25670   0.40876   0.53024   0.00000  Uiso   1.00
Ni1065 Ni    0.65207   0.71289   0.50000   0.00000  Uiso   1.00
Ni1066 Ni    0.71289   0.65207   0.50000   0.00000  Uiso   1.00
Ni1067 Ni    0.71289   0.34793   0.50000   0.00000  Uiso   1.00
Ni1068 Ni    0.34793   0.71289   0.50000   0.00000  Uiso   1.00
Ni1069 Ni    0.65207   0.28711   0.50000   0.00000  Uiso   1.00
Ni1070 Ni    0.28711   0.65207   0.50000   0.00000  Uiso   1.00
Ni1071 Ni    0.34793   0.28711   0.50000   0.00000  Uiso   1.00
Ni1072 Ni    0.28711   0.34793   0.50000   0.00000  Uiso   1.00
Ni1073 Ni    0.56083   0.68248   0.31855   0.00000  Uiso   1.00
Ni1074 Ni    0.68248   0.56083   0.31855   0.00000  Uiso   1.00
Ni1075 Ni    0.43917   0.68248   0.31855   0.00000  Uiso   1.00
Ni1076 Ni    0.68248   0.43917   0.31855   0.00000  Uiso   1.00
Ni1077 Ni    0.56083   0.31752   0.31855   0.00000  Uiso   1.00
Ni1078 Ni    0.31752   0.56083   0.31855   0.00000  Uiso   1.00
Ni1079 Ni    0.31752   0.43917   0.31855   0.00000  Uiso   1.00
Ni1080 Ni    0.43917   0.31752   0.31855   0.00000  Uiso   1.00
Ni1081 Ni    0.56083   0.68248   0.68145   0.00000  Uiso   1.00
Ni1082 Ni    0.68248   0.56083   0.68145   0.00000  Uiso   1.00
Ni1083 Ni    0.43917   0.68248   0.68145   0.00000  Uiso   1.00
Ni1084 Ni    0.68248   0.43917   0.68145   0.00000  Uiso   1.00
Ni1085 Ni    0.56083   0.31752   0.68145   0.00000  Uiso   1.00
Ni1086 Ni    0.31752   0.56083   0.68145   0.00000  Uiso   1.00
Ni1087 Ni    0.43917   0.31752   0.68145   0.00000  Uiso   1.00
Ni1088 Ni    0.31752   0.43917   0.68145   0.00000  Uiso   1.00
Ni1089 Ni    0.68248   0.68248   0.43952   0.00000  Uiso   1.00
Ni1090 Ni    0.68248   0.68248   0.56048   0.00000  Uiso   1.00
Ni1091 Ni    0.68248   0.31752   0.43952   0.00000  Uiso   1.00
Ni1092 Ni    0.31752   0.68248   0.43952   0.00000  Uiso   1.00
Ni1093 Ni    0.68248   0.31752   0.56048   0.00000  Uiso   1.00
Ni1094 Ni    0.31752   0.68248   0.56048   0.00000  Uiso   1.00
Ni1095 Ni    0.31752   0.31752   0.43952   0.00000  Uiso   1.00
Ni1096 Ni    0.31752   0.31752   0.56048   0.00000  Uiso   1.00
Ni1097 Ni    0.65207   0.56083   0.28831   0.00000  Uiso   1.00
Ni1098 Ni    0.56083   0.65207   0.28831   0.00000  Uiso   1.00
Ni1099 Ni    0.43917   0.65207   0.28831   0.00000  Uiso   1.00
Ni1100 Ni    0.65207   0.43917   0.28831   0.00000  Uiso   1.00
Ni1101 Ni    0.56083   0.65207   0.71169   0.00000  Uiso   1.00
Ni1102 Ni    0.65207   0.56083   0.71169   0.00000  Uiso   1.00
Ni1103 Ni    0.56083   0.34793   0.28831   0.00000  Uiso   1.00
Ni1104 Ni    0.34793   0.56083   0.28831   0.00000  Uiso   1.00
Ni1105 Ni    0.65207   0.43917   0.71169   0.00000  Uiso   1.00
Ni1106 Ni    0.43917   0.65207   0.71169   0.00000  Uiso   1.00
Ni1107 Ni    0.34793   0.43917   0.28831   0.00000  Uiso   1.00
Ni1108 Ni    0.43917   0.34793   0.28831   0.00000  Uiso   1.00
Ni1109 Ni    0.56083   0.34793   0.71169   0.00000  Uiso   1.00
Ni1110 Ni    0.34793   0.56083   0.71169   0.00000  Uiso   1.00
Ni1111 Ni    0.43917   0.34793   0.71169   0.00000  Uiso   1.00
Ni1112 Ni    0.34793   0.43917   0.71169   0.00000  Uiso   1.00
Ni1113 Ni    0.71289   0.56083   0.34879   0.00000  Uiso   1.00
Ni1114 Ni    0.56083   0.71289   0.34879   0.00000  Uiso   1.00
Ni1115 Ni    0.71289   0.43917   0.34879   0.00000  Uiso   1.00
Ni1116 Ni    0.43917   0.71289   0.34879   0.00000  Uiso   1.00
Ni1117 Ni    0.56083   0.71289   0.65121   0.00000  Uiso   1.00
Ni1118 Ni    0.71289   0.56083   0.65121   0.00000  Uiso   1.00
Ni1119 Ni    0.43917   0.71289   0.65121   0.00000  Uiso   1.00
Ni1120 Ni    0.71289   0.43917   0.65121   0.00000  Uiso   1.00
Ni1121 Ni    0.56083   0.28711   0.34879   0.00000  Uiso   1.00
Ni1122 Ni    0.28711   0.56083   0.34879   0.00000  Uiso   1.00
Ni1123 Ni    0.43917   0.28711   0.34879   0.00000  Uiso   1.00
Ni1124 Ni    0.28711   0.43917   0.34879   0.00000  Uiso   1.00
Ni1125 Ni    0.56083   0.28711   0.65121   0.00000  Uiso   1.00
Ni1126 Ni    0.28711   0.56083   0.65121   0.00000  Uiso   1.00
Ni1127 Ni    0.43917   0.28711   0.65121   0.00000  Uiso   1.00
Ni1128 Ni    0.28711   0.43917   0.65121   0.00000  Uiso   1.00
Ni1129 Ni    0.50000   0.53041   0.22783   0.00000  Uiso   1.00
Ni1130 Ni    0.53041   0.50000   0.22783   0.00000  Uiso   1.00
Ni1131 Ni    0.46959   0.50000   0.22783   0.00000  Uiso   1.00
Ni1132 Ni    0.50000   0.46959   0.22783   0.00000  Uiso   1.00
Ni1133 Ni    0.53041   0.50000   0.77217   0.00000  Uiso   1.00
Ni1134 Ni    0.50000   0.53041   0.77217   0.00000  Uiso   1.00
Ni1135 Ni    0.46959   0.50000   0.77217   0.00000  Uiso   1.00
Ni1136 Ni    0.50000   0.46959   0.77217   0.00000  Uiso   1.00
Ni1137 Ni    0.59124   0.59124   0.25807   0.00000  Uiso   1.00
Ni1138 Ni    0.59124   0.59124   0.74193   0.00000  Uiso   1.00
Ni1139 Ni    0.59124   0.40876   0.25807   0.00000  Uiso   1.00
Ni1140 Ni    0.40876   0.59124   0.25807   0.00000  Uiso   1.00
Ni1141 Ni    0.59124   0.40876   0.74193   0.00000  Uiso   1.00
Ni1142 Ni    0.40876   0.59124   0.74193   0.00000  Uiso   1.00
Ni1143 Ni    0.40876   0.40876   0.25807   0.00000  Uiso   1.00
Ni1144 Ni    0.40876   0.40876   0.74193   0.00000  Uiso   1.00
Ni1145 Ni    0.74330   0.59124   0.40928   0.00000  Uiso   1.00
Ni1146 Ni    0.59124   0.74330   0.40928   0.00000  Uiso   1.00
Ni1147 Ni    0.74330   0.59124   0.59072   0.00000  Uiso   1.00
Ni1148 Ni    0.59124   0.74330   0.59072   0.00000  Uiso   1.00
Ni1149 Ni    0.74330   0.40876   0.40928   0.00000  Uiso   1.00
Ni1150 Ni    0.40876   0.74330   0.40928   0.00000  Uiso   1.00
Ni1151 Ni    0.59124   0.25670   0.40928   0.00000  Uiso   1.00
Ni1152 Ni    0.25670   0.59124   0.40928   0.00000  Uiso   1.00
Ni1153 Ni    0.74330   0.40876   0.59072   0.00000  Uiso   1.00
Ni1154 Ni    0.40876   0.74330   0.59072   0.00000  Uiso   1.00
Ni1155 Ni    0.25670   0.59124   0.59072   0.00000  Uiso   1.00
Ni1156 Ni    0.59124   0.25670   0.59072   0.00000  Uiso   1.00
Ni1157 Ni    0.40876   0.25670   0.40928   0.00000  Uiso   1.00
Ni1158 Ni    0.25670   0.40876   0.40928   0.00000  Uiso   1.00
Ni1159 Ni    0.40876   0.25670   0.59072   0.00000  Uiso   1.00
Ni1160 Ni    0.25670   0.40876   0.59072   0.00000  Uiso   1.00
Ni1161 Ni    0.50000   0.77372   0.46976   0.00000  Uiso   1.00
Ni1162 Ni    0.77372   0.50000   0.46976   0.00000  Uiso   1.00
Ni1163 Ni    0.77372   0.50000   0.53024   0.00000  Uiso   1.00
Ni1164 Ni    0.50000   0.77372   0.53024   0.00000  Uiso   1.00
Ni1165 Ni    0.22628   0.50000   0.46976   0.00000  Uiso   1.00
Ni1166 Ni    0.50000   0.22628   0.46976   0.00000  Uiso   1.00
Ni1167 Ni    0.50000   0.22628   0.53024   0.00000  Uiso   1.00
Ni1168 Ni    0.22628   0.50000   0.53024   0.00000  Uiso   1.00
Ni1169 Ni    0.53041   0.77372   0.50000   0.00000  Uiso   1.00
Ni1170 Ni    0.77372   0.53041   0.50000   0.00000  Uiso   1.00
Ni1171 Ni    0.46959   0.77372   0.50000   0.00000  Uiso   1.00
Ni1172 Ni    0.77372   0.46959   0.50000   0.00000  Uiso   1.00
Ni1173 Ni    0.53041   0.22628   0.50000   0.00000  Uiso   1.00
Ni1174 Ni    0.22628   0.53041   0.50000   0.00000  Uiso   1.00
Ni1175 Ni    0.46959   0.22628   0.50000   0.00000  Uiso   1.00
Ni1176 Ni    0.22628   0.46959   0.50000   0.00000  Uiso   1.00
Ni1177 Ni    0.74330   0.62165   0.43952   0.00000  Uiso   1.00
Ni1178 Ni    0.62165   0.74330   0.43952   0.00000  Uiso   1.00
Ni1179 Ni    0.62165   0.74330   0.56048   0.00000  Uiso   1.00
Ni1180 Ni    0.74330   0.62165   0.56048   0.00000  Uiso   1.00
Ni1181 Ni    0.37835   0.74330   0.43952   0.00000  Uiso   1.00
Ni1182 Ni    0.74330   0.37835   0.43952   0.00000  Uiso   1.00
Ni1183 Ni    0.37835   0.74330   0.56048   0.00000  Uiso   1.00
Ni1184 Ni    0.74330   0.37835   0.56048   0.00000  Uiso   1.00
Ni1185 Ni    0.62165   0.25670   0.43952   0.00000  Uiso   1.00
Ni1186 Ni    0.25670   0.62165   0.43952   0.00000  Uiso   1.00
Ni1187 Ni    0.62165   0.25670   0.56048   0.00000  Uiso   1.00
Ni1188 Ni    0.25670   0.62165   0.56048   0.00000  Uiso   1.00
Ni1189 Ni    0.25670   0.37835   0.43952   0.00000  Uiso   1.00
Ni1190 Ni    0.37835   0.25670   0.43952   0.00000  Uiso   1.00
Ni1191 Ni    0.37835   0.25670   0.56048   0.00000  Uiso   1.00
Ni1192 Ni    0.25670   0.37835   0.56048   0.00000  Uiso   1.00
Ni1193 Ni    0.53041   0.56083   0.22783   0.00000  Uiso   1.00
Ni1194 Ni    0.56083   0.53041   0.22783   0.00000  Uiso   1.00
Ni1195 Ni    0.53041   0.43917   0.22783   0.00000  Uiso   1.00
Ni1196 Ni    0.43917   0.53041   0.22783   0.00000  Uiso   1.00
Ni1197 Ni    0.56083   0.46959   0.22783   0.00000  Uiso   1.00
Ni1198 Ni    0.46959   0.56083   0.22783   0.00000  Uiso   1.00
Ni1199 Ni    0.46959   0.43917   0.22783   0.00000  Uiso   1.00
Ni1200 Ni    0.43917   0.46959   0.22783   0.00000  Uiso   1.00
Ni1201 Ni    0.53041   0.56083   0.77217   0.00000  Uiso   1.00
Ni1202 Ni    0.56083   0.53041   0.77217   0.00000  Uiso   1.00
Ni1203 Ni    0.53041   0.43917   0.77217   0.00000  Uiso   1.00
Ni1204 Ni    0.43917   0.53041   0.77217   0.00000  Uiso   1.00
Ni1205 Ni    0.56083   0.46959   0.77217   0.00000  Uiso   1.00
Ni1206 Ni    0.46959   0.56083   0.77217   0.00000  Uiso   1.00
Ni1207 Ni    0.43917   0.46959   0.77217   0.00000  Uiso   1.00
Ni1208 Ni    0.46959   0.43917   0.77217   0.00000  Uiso   1.00
Ni1209 Ni    0.68248   0.53041   0.28831   0.00000  Uiso   1.00
Ni1210 Ni    0.53041   0.68248   0.28831   0.00000  Uiso   1.00
Ni1211 Ni    0.68248   0.46959   0.28831   0.00000  Uiso   1.00
Ni1212 Ni    0.46959   0.68248   0.28831   0.00000  Uiso   1.00
Ni1213 Ni    0.31752   0.53041   0.28831   0.00000  Uiso   1.00
Ni1214 Ni    0.53041   0.31752   0.28831   0.00000  Uiso   1.00
Ni1215 Ni    0.31752   0.46959   0.28831   0.00000  Uiso   1.00
Ni1216 Ni    0.46959   0.31752   0.28831   0.00000  Uiso   1.00
Ni1217 Ni    0.53041   0.68248   0.71169   0.00000  Uiso   1.00
Ni1218 Ni    0.68248   0.53041   0.71169   0.00000  Uiso   1.00
Ni1219 Ni    0.46959   0.68248   0.71169   0.00000  Uiso   1.00
Ni1220 Ni    0.68248   0.46959   0.71169   0.00000  Uiso   1.00
Ni1221 Ni    0.31752   0.53041   0.71169   0.00000  Uiso   1.00
Ni1222 Ni    0.53041   0.31752   0.71169   0.00000  Uiso   1.00
Ni1223 Ni    0.31752   0.46959   0.71169   0.00000  Uiso   1.00
Ni1224 Ni    0.46959   0.31752   0.71169   0.00000  Uiso   1.00
Ni1225 Ni    0.68248   0.65207   0.34879   0.00000  Uiso   1.00
Ni1226 Ni    0.65207   0.68248   0.34879   0.00000  Uiso   1.00
Ni1227 Ni    0.65207   0.31752   0.34879   0.00000  Uiso   1.00
Ni1228 Ni    0.31752   0.65207   0.34879   0.00000  Uiso   1.00
Ni1229 Ni    0.68248   0.65207   0.65121   0.00000  Uiso   1.00
Ni1230 Ni    0.65207   0.68248   0.65121   0.00000  Uiso   1.00
Ni1231 Ni    0.68248   0.34793   0.34879   0.00000  Uiso   1.00
Ni1232 Ni    0.34793   0.68248   0.34879   0.00000  Uiso   1.00
Ni1233 Ni    0.65207   0.31752   0.65121   0.00000  Uiso   1.00
Ni1234 Ni    0.31752   0.65207   0.65121   0.00000  Uiso   1.00
Ni1235 Ni    0.31752   0.34793   0.34879   0.00000  Uiso   1.00
Ni1236 Ni    0.34793   0.31752   0.34879   0.00000  Uiso   1.00
Ni1237 Ni    0.68248   0.34793   0.65121   0.00000  Uiso   1.00
Ni1238 Ni    0.34793   0.68248   0.65121   0.00000  Uiso   1.00
Ni1239 Ni    0.31752   0.34793   0.65121   0.00000  Uiso   1.00
Ni1240 Ni    0.34793   0.31752   0.65121   0.00000  Uiso   1.00
Ni1241 Ni    0.56083   0.77372   0.46976   0.00000  Uiso   1.00
Ni1242 Ni    0.77372   0.56083   0.46976   0.00000  Uiso   1.00
Ni1243 Ni    0.68248   0.71289   0.46976   0.00000  Uiso   1.00
Ni1244 Ni    0.71289   0.68248   0.46976   0.00000  Uiso   1.00
Ni1245 Ni    0.77372   0.56083   0.53024   0.00000  Uiso   1.00
Ni1246 Ni    0.56083   0.77372   0.53024   0.00000  Uiso   1.00
Ni1247 Ni    0.71289   0.68248   0.53024   0.00000  Uiso   1.00
Ni1248 Ni    0.68248   0.71289   0.53024   0.00000  Uiso   1.00
Ni1249 Ni    0.77372   0.43917   0.46976   0.00000  Uiso   1.00
Ni1250 Ni    0.43917   0.77372   0.46976   0.00000  Uiso   1.00
Ni1251 Ni    0.43917   0.77372   0.53024   0.00000  Uiso   1.00
Ni1252 Ni    0.77372   0.43917   0.53024   0.00000  Uiso   1.00
Ni1253 Ni    0.31752   0.71289   0.46976   0.00000  Uiso   1.00
Ni1254 Ni    0.71289   0.31752   0.46976   0.00000  Uiso   1.00
Ni1255 Ni    0.31752   0.71289   0.53024   0.00000  Uiso   1.00
Ni1256 Ni    0.71289   0.31752   0.53024   0.00000  Uiso   1.00
Ni1257 Ni    0.68248   0.28711   0.46976   0.00000  Uiso   1.00
Ni1258 Ni    0.28711   0.68248   0.46976   0.00000  Uiso   1.00
Ni1259 Ni    0.68248   0.28711   0.53024   0.00000  Uiso   1.00
Ni1260 Ni    0.28711   0.68248   0.53024   0.00000  Uiso   1.00
Ni1261 Ni    0.22628   0.56083   0.46976   0.00000  Uiso   1.00
Ni1262 Ni    0.56083   0.22628   0.46976   0.00000  Uiso   1.00
Ni1263 Ni    0.56083   0.22628   0.53024   0.00000  Uiso   1.00
Ni1264 Ni    0.22628   0.56083   0.53024   0.00000  Uiso   1.00
Ni1265 Ni    0.31752   0.28711   0.46976   0.00000  Uiso   1.00
Ni1266 Ni    0.28711   0.31752   0.46976   0.00000  Uiso   1.00
Ni1267 Ni    0.22628   0.43917   0.46976   0.00000  Uiso   1.00
Ni1268 Ni    0.43917   0.22628   0.46976   0.00000  Uiso   1.00
Ni1269 Ni    0.31752   0.28711   0.53024   0.00000  Uiso   1.00
Ni1270 Ni    0.28711   0.31752   0.53024   0.00000  Uiso   1.00
Ni1271 Ni    0.43917   0.22628   0.53024   0.00000  Uiso   1.00
Ni1272 Ni    0.22628   0.43917   0.53024   0.00000  Uiso   1.00
Ni1273 Ni    0.68248   0.62165   0.31855   0.00000  Uiso   1.00
Ni1274 Ni    0.62165   0.68248   0.31855   0.00000  Uiso   1.00
Ni1275 Ni    0.37835   0.68248   0.31855   0.00000  Uiso   1.00
Ni1276 Ni    0.68248   0.37835   0.31855   0.00000  Uiso   1.00
Ni1277 Ni    0.62165   0.31752   0.31855   0.00000  Uiso   1.00
Ni1278 Ni    0.31752   0.62165   0.31855   0.00000  Uiso   1.00
Ni1279 Ni    0.62165   0.68248   0.68145   0.00000  Uiso   1.00
Ni1280 Ni    0.68248   0.62165   0.68145   0.00000  Uiso   1.00
Ni1281 Ni    0.31752   0.37835   0.31855   0.00000  Uiso   1.00
Ni1282 Ni    0.37835   0.31752   0.31855   0.00000  Uiso   1.00
Ni1283 Ni    0.37835   0.68248   0.68145   0.00000  Uiso   1.00
Ni1284 Ni    0.68248   0.37835   0.68145   0.00000  Uiso   1.00
Ni1285 Ni    0.62165   0.31752   0.68145   0.00000  Uiso   1.00
Ni1286 Ni    0.31752   0.62165   0.68145   0.00000  Uiso   1.00
Ni1287 Ni    0.37835   0.31752   0.68145   0.00000  Uiso   1.00
Ni1288 Ni    0.31752   0.37835   0.68145   0.00000  Uiso   1.00
Ni1289 Ni    0.50000   0.59124   0.22783   0.00000  Uiso   1.00
Ni1290 Ni    0.59124   0.50000   0.22783   0.00000  Uiso   1.00
Ni1291 Ni    0.40876   0.50000   0.22783   0.00000  Uiso   1.00
Ni1292 Ni    0.50000   0.40876   0.22783   0.00000  Uiso   1.00
Ni1293 Ni    0.50000   0.59124   0.77217   0.00000  Uiso   1.00
Ni1294 Ni    0.59124   0.50000   0.77217   0.00000  Uiso   1.00
Ni1295 Ni    0.50000   0.40876   0.77217   0.00000  Uiso   1.00
Ni1296 Ni    0.40876   0.50000   0.77217   0.00000  Uiso   1.00
Ni1297 Ni    0.65207   0.53041   0.25807   0.00000  Uiso   1.00
Ni1298 Ni    0.53041   0.65207   0.25807   0.00000  Uiso   1.00
Ni1299 Ni    0.65207   0.46959   0.25807   0.00000  Uiso   1.00
Ni1300 Ni    0.46959   0.65207   0.25807   0.00000  Uiso   1.00
Ni1301 Ni    0.65207   0.53041   0.74193   0.00000  Uiso   1.00
Ni1302 Ni    0.53041   0.65207   0.74193   0.00000  Uiso   1.00
Ni1303 Ni    0.65207   0.46959   0.74193   0.00000  Uiso   1.00
Ni1304 Ni    0.46959   0.65207   0.74193   0.00000  Uiso   1.00
Ni1305 Ni    0.53041   0.34793   0.25807   0.00000  Uiso   1.00
Ni1306 Ni    0.34793   0.53041   0.25807   0.00000  Uiso   1.00
Ni1307 Ni    0.46959   0.34793   0.25807   0.00000  Uiso   1.00
Ni1308 Ni    0.34793   0.46959   0.25807   0.00000  Uiso   1.00
Ni1309 Ni    0.53041   0.34793   0.74193   0.00000  Uiso   1.00
Ni1310 Ni    0.34793   0.53041   0.74193   0.00000  Uiso   1.00
Ni1311 Ni    0.34793   0.46959   0.74193   0.00000  Uiso   1.00
Ni1312 Ni    0.46959   0.34793   0.74193   0.00000  Uiso   1.00
Ni1313 Ni    0.62165   0.65207   0.28831   0.00000  Uiso   1.00
Ni1314 Ni    0.65207   0.62165   0.28831   0.00000  Uiso   1.00
Ni1315 Ni    0.65207   0.37835   0.28831   0.00000  Uiso   1.00
Ni1316 Ni    0.37835   0.65207   0.28831   0.00000  Uiso   1.00
Ni1317 Ni    0.65207   0.62165   0.71169   0.00000  Uiso   1.00
Ni1318 Ni    0.62165   0.65207   0.71169   0.00000  Uiso   1.00
Ni1319 Ni    0.62165   0.34793   0.28831   0.00000  Uiso   1.00
Ni1320 Ni    0.34793   0.62165   0.28831   0.00000  Uiso   1.00
Ni1321 Ni    0.65207   0.37835   0.71169   0.00000  Uiso   1.00
Ni1322 Ni    0.37835   0.65207   0.71169   0.00000  Uiso   1.00
Ni1323 Ni    0.34793   0.37835   0.28831   0.00000  Uiso   1.00
Ni1324 Ni    0.37835   0.34793   0.28831   0.00000  Uiso   1.00
Ni1325 Ni    0.62165   0.34793   0.71169   0.00000  Uiso   1.00
Ni1326 Ni    0.34793   0.62165   0.71169   0.00000  Uiso   1.00
Ni1327 Ni    0.37835   0.34793   0.71169   0.00000  Uiso   1.00
Ni1328 Ni    0.34793   0.37835   0.71169   0.00000  Uiso   1.00
Ni1329 Ni    0.71289   0.62165   0.34879   0.00000  Uiso   1.00
Ni1330 Ni    0.62165   0.71289   0.34879   0.00000  Uiso   1.00
Ni1331 Ni    0.37835   0.71289   0.34879   0.00000  Uiso   1.00
Ni1332 Ni    0.71289   0.37835   0.34879   0.00000  Uiso   1.00
Ni1333 Ni    0.53041   0.74330   0.34879   0.00000  Uiso   1.00
Ni1334 Ni    0.74330   0.53041   0.34879   0.00000  Uiso   1.00
Ni1335 Ni    0.46959   0.74330   0.34879   0.00000  Uiso   1.00
Ni1336 Ni    0.74330   0.46959   0.34879   0.00000  Uiso   1.00
Ni1337 Ni    0.71289   0.62165   0.65121   0.00000  Uiso   1.00
Ni1338 Ni    0.62165   0.71289   0.65121   0.00000  Uiso   1.00
Ni1339 Ni    0.71289   0.37835   0.65121   0.00000  Uiso   1.00
Ni1340 Ni    0.37835   0.71289   0.65121   0.00000  Uiso   1.00
Ni1341 Ni    0.74330   0.53041   0.65121   0.00000  Uiso   1.00
Ni1342 Ni    0.53041   0.74330   0.65121   0.00000  Uiso   1.00
Ni1343 Ni    0.25670   0.53041   0.34879   0.00000  Uiso   1.00
Ni1344 Ni    0.53041   0.25670   0.34879   0.00000  Uiso   1.00
Ni1345 Ni    0.74330   0.46959   0.65121   0.00000  Uiso   1.00
Ni1346 Ni    0.46959   0.74330   0.65121   0.00000  Uiso   1.00
Ni1347 Ni    0.46959   0.25670   0.34879   0.00000  Uiso   1.00
Ni1348 Ni    0.25670   0.46959   0.34879   0.00000  Uiso   1.00
Ni1349 Ni    0.28711   0.62165   0.34879   0.00000  Uiso   1.00
Ni1350 Ni    0.62165   0.28711   0.34879   0.00000  Uiso   1.00
Ni1351 Ni    0.37835   0.28711   0.34879   0.00000  Uiso   1.00
Ni1352 Ni    0.28711   0.37835   0.34879   0.00000  Uiso   1.00
Ni1353 Ni    0.25670   0.53041   0.65121   0.00000  Uiso   1.00
Ni1354 Ni    0.53041   0.25670   0.65121   0.00000  Uiso   1.00
Ni1355 Ni    0.46959   0.25670   0.65121   0.00000  Uiso   1.00
Ni1356 Ni    0.25670   0.46959   0.65121   0.00000  Uiso   1.00
Ni1357 Ni    0.28711   0.62165   0.65121   0.00000  Uiso   1.00
Ni1358 Ni    0.62165   0.28711   0.65121   0.00000  Uiso   1.00
Ni1359 Ni    0.37835   0.28711   0.65121   0.00000  Uiso   1.00
Ni1360 Ni    0.28711   0.37835   0.65121   0.00000  Uiso   1.00
Ni1361 Ni    0.65207   0.71289   0.37903   0.00000  Uiso   1.00
Ni1362 Ni    0.71289   0.65207   0.37903   0.00000  Uiso   1.00
Ni1363 Ni    0.65207   0.71289   0.62097   0.00000  Uiso   1.00
Ni1364 Ni    0.71289   0.65207   0.62097   0.00000  Uiso   1.00
Ni1365 Ni    0.71289   0.34793   0.37903   0.00000  Uiso   1.00
Ni1366 Ni    0.34793   0.71289   0.37903   0.00000  Uiso   1.00
Ni1367 Ni    0.71289   0.34793   0.62097   0.00000  Uiso   1.00
Ni1368 Ni    0.34793   0.71289   0.62097   0.00000  Uiso   1.00
Ni1369 Ni    0.65207   0.28711   0.37903   0.00000  Uiso   1.00
Ni1370 Ni    0.28711   0.65207   0.37903   0.00000  Uiso   1.00
Ni1371 Ni    0.65207   0.28711   0.62097   0.00000  Uiso   1.00
Ni1372 Ni    0.28711   0.65207   0.62097   0.00000  Uiso   1.00
Ni1373 Ni    0.28711   0.34793   0.37903   0.00000  Uiso   1.00
Ni1374 Ni    0.34793   0.28711   0.37903   0.00000  Uiso   1.00
Ni1375 Ni    0.34793   0.28711   0.62097   0.00000  Uiso   1.00
Ni1376 Ni    0.28711   0.34793   0.62097   0.00000  Uiso   1.00
Ni1377 Ni    0.77372   0.50000   0.40928   0.00000  Uiso   1.00
Ni1378 Ni    0.50000   0.77372   0.40928   0.00000  Uiso   1.00
Ni1379 Ni    0.50000   0.77372   0.59072   0.00000  Uiso   1.00
Ni1380 Ni    0.77372   0.50000   0.59072   0.00000  Uiso   1.00
Ni1381 Ni    0.50000   0.22628   0.40928   0.00000  Uiso   1.00
Ni1382 Ni    0.22628   0.50000   0.40928   0.00000  Uiso   1.00
Ni1383 Ni    0.50000   0.22628   0.59072   0.00000  Uiso   1.00
Ni1384 Ni    0.22628   0.50000   0.59072   0.00000  Uiso   1.00
Ni1385 Ni    0.74330   0.65207   0.46976   0.00000  Uiso   1.00
Ni1386 Ni    0.65207   0.74330   0.46976   0.00000  Uiso   1.00
Ni1387 Ni    0.65207   0.74330   0.53024   0.00000  Uiso   1.00
Ni1388 Ni    0.74330   0.65207   0.53024   0.00000  Uiso   1.00
Ni1389 Ni    0.65207   0.25670   0.46976   0.00000  Uiso   1.00
Ni1390 Ni    0.25670   0.65207   0.46976   0.00000  Uiso   1.00
Ni1391 Ni    0.25670   0.65207   0.53024   0.00000  Uiso   1.00
Ni1392 Ni    0.65207   0.25670   0.53024   0.00000  Uiso   1.00
Ni1393 Ni    0.74330   0.34793   0.46976   0.00000  Uiso   1.00
Ni1394 Ni    0.34793   0.74330   0.46976   0.00000  Uiso   1.00
Ni1395 Ni    0.74330   0.34793   0.53024   0.00000  Uiso   1.00
Ni1396 Ni    0.34793   0.74330   0.53024   0.00000  Uiso   1.00
Ni1397 Ni    0.34793   0.25670   0.46976   0.00000  Uiso   1.00
Ni1398 Ni    0.25670   0.34793   0.46976   0.00000  Uiso   1.00
Ni1399 Ni    0.25670   0.34793   0.53024   0.00000  Uiso   1.00
Ni1400 Ni    0.34793   0.25670   0.53024   0.00000  Uiso   1.00
Ni1401 Ni    0.77372   0.59124   0.50000   0.00000  Uiso   1.00
Ni1402 Ni    0.59124   0.77372   0.50000   0.00000  Uiso   1.00
Ni1403 Ni    0.40876   0.77372   0.50000   0.00000  Uiso   1.00
Ni1404 Ni    0.77372   0.40876   0.50000   0.00000  Uiso   1.00
Ni1405 Ni    0.59124   0.22628   0.50000   0.00000  Uiso   1.00
Ni1406 Ni    0.22628   0.59124   0.50000   0.00000  Uiso   1.00
Ni1407 Ni    0.22628   0.40876   0.50000   0.00000  Uiso   1.00
Ni1408 Ni    0.40876   0.22628   0.50000   0.00000  Uiso   1.00
Ni1409 Ni    0.56083   0.59124   0.22783   0.00000  Uiso   1.00
Ni1410 Ni    0.59124   0.56083   0.22783   0.00000  Uiso   1.00
Ni1411 Ni    0.43917   0.59124   0.22783   0.00000  Uiso   1.00
Ni1412 Ni    0.59124   0.43917   0.22783   0.00000  Uiso   1.00
Ni1413 Ni    0.56083   0.40876   0.22783   0.00000  Uiso   1.00
Ni1414 Ni    0.40876   0.56083   0.22783   0.00000  Uiso   1.00
Ni1415 Ni    0.43917   0.40876   0.22783   0.00000  Uiso   1.00
Ni1416 Ni    0.40876   0.43917   0.22783   0.00000  Uiso   1.00
Ni1417 Ni    0.59124   0.56083   0.77217   0.00000  Uiso   1.00
Ni1418 Ni    0.56083   0.59124   0.77217   0.00000  Uiso   1.00
Ni1419 Ni    0.59124   0.43917   0.77217   0.00000  Uiso   1.00
Ni1420 Ni    0.43917   0.59124   0.77217   0.00000  Uiso   1.00
Ni1421 Ni    0.40876   0.56083   0.77217   0.00000  Uiso   1.00
Ni1422 Ni    0.56083   0.40876   0.77217   0.00000  Uiso   1.00
Ni1423 Ni    0.40876   0.43917   0.77217   0.00000  Uiso   1.00
Ni1424 Ni    0.43917   0.40876   0.77217   0.00000  Uiso   1.00
Ni1425 Ni    0.59124   0.68248   0.28831   0.00000  Uiso   1.00
Ni1426 Ni    0.68248   0.59124   0.28831   0.00000  Uiso   1.00
Ni1427 Ni    0.59124   0.31752   0.28831   0.00000  Uiso   1.00
Ni1428 Ni    0.31752   0.59124   0.28831   0.00000  Uiso   1.00
Ni1429 Ni    0.40876   0.68248   0.28831   0.00000  Uiso   1.00
Ni1430 Ni    0.68248   0.40876   0.28831   0.00000  Uiso   1.00
Ni1431 Ni    0.59124   0.68248   0.71169   0.00000  Uiso   1.00
Ni1432 Ni    0.68248   0.59124   0.71169   0.00000  Uiso   1.00
Ni1433 Ni    0.40876   0.31752   0.28831   0.00000  Uiso   1.00
Ni1434 Ni    0.31752   0.40876   0.28831   0.00000  Uiso   1.00
Ni1435 Ni    0.59124   0.31752   0.71169   0.00000  Uiso   1.00
Ni1436 Ni    0.31752   0.59124   0.71169   0.00000  Uiso   1.00
Ni1437 Ni    0.68248   0.40876   0.71169   0.00000  Uiso   1.00
Ni1438 Ni    0.40876   0.68248   0.71169   0.00000  Uiso   1.00
Ni1439 Ni    0.40876   0.31752   0.71169   0.00000  Uiso   1.00
Ni1440 Ni    0.31752   0.40876   0.71169   0.00000  Uiso   1.00
Ni1441 Ni    0.56083   0.77372   0.40928   0.00000  Uiso   1.00
Ni1442 Ni    0.77372   0.56083   0.40928   0.00000  Uiso   1.00
Ni1443 Ni    0.68248   0.71289   0.40928   0.00000  Uiso   1.00
Ni1444 Ni    0.71289   0.68248   0.40928   0.00000  Uiso   1.00
Ni1445 Ni    0.43917   0.77372   0.40928   0.00000  Uiso   1.00
Ni1446 Ni    0.77372   0.43917   0.40928   0.00000  Uiso   1.00
Ni1447 Ni    0.56083   0.77372   0.59072   0.00000  Uiso   1.00
Ni1448 Ni    0.77372   0.56083   0.59072   0.00000  Uiso   1.00
Ni1449 Ni    0.71289   0.68248   0.59072   0.00000  Uiso   1.00
Ni1450 Ni    0.68248   0.71289   0.59072   0.00000  Uiso   1.00
Ni1451 Ni    0.31752   0.71289   0.40928   0.00000  Uiso   1.00
Ni1452 Ni    0.71289   0.31752   0.40928   0.00000  Uiso   1.00
Ni1453 Ni    0.43917   0.77372   0.59072   0.00000  Uiso   1.00
Ni1454 Ni    0.77372   0.43917   0.59072   0.00000  Uiso   1.00
Ni1455 Ni    0.71289   0.31752   0.59072   0.00000  Uiso   1.00
Ni1456 Ni    0.31752   0.71289   0.59072   0.00000  Uiso   1.00
Ni1457 Ni    0.28711   0.68248   0.40928   0.00000  Uiso   1.00
Ni1458 Ni    0.68248   0.28711   0.40928   0.00000  Uiso   1.00
Ni1459 Ni    0.56083   0.22628   0.40928   0.00000  Uiso   1.00
Ni1460 Ni    0.22628   0.56083   0.40928   0.00000  Uiso   1.00
Ni1461 Ni    0.28711   0.68248   0.59072   0.00000  Uiso   1.00
Ni1462 Ni    0.68248   0.28711   0.59072   0.00000  Uiso   1.00
Ni1463 Ni    0.31752   0.28711   0.40928   0.00000  Uiso   1.00
Ni1464 Ni    0.28711   0.31752   0.40928   0.00000  Uiso   1.00
Ni1465 Ni    0.43917   0.22628   0.40928   0.00000  Uiso   1.00
Ni1466 Ni    0.22628   0.43917   0.40928   0.00000  Uiso   1.00
Ni1467 Ni    0.56083   0.22628   0.59072   0.00000  Uiso   1.00
Ni1468 Ni    0.22628   0.56083   0.59072   0.00000  Uiso   1.00
Ni1469 Ni    0.31752   0.28711   0.59072   0.00000  Uiso   1.00
Ni1470 Ni    0.28711   0.31752   0.59072   0.00000  Uiso   1.00
Ni1471 Ni    0.22628   0.43917   0.59072   0.00000  Uiso   1.00
Ni1472 Ni    0.43917   0.22628   0.59072   0.00000  Uiso   1.00
Ni1473 Ni    0.53041   0.62165   0.22783   0.00000  Uiso   1.00
Ni1474 Ni    0.62165   0.53041   0.22783   0.00000  Uiso   1.00
Ni1475 Ni    0.62165   0.46959   0.22783   0.00000  Uiso   1.00
Ni1476 Ni    0.46959   0.62165   0.22783   0.00000  Uiso   1.00
Ni1477 Ni    0.37835   0.53041   0.22783   0.00000  Uiso   1.00
Ni1478 Ni    0.53041   0.37835   0.22783   0.00000  Uiso   1.00
Ni1479 Ni    0.37835   0.46959   0.22783   0.00000  Uiso   1.00
Ni1480 Ni    0.46959   0.37835   0.22783   0.00000  Uiso   1.00
Ni1481 Ni    0.62165   0.53041   0.77217   0.00000  Uiso   1.00
Ni1482 Ni    0.53041   0.62165   0.77217   0.00000  Uiso   1.00
Ni1483 Ni    0.46959   0.62165   0.77217   0.00000  Uiso   1.00
Ni1484 Ni    0.62165   0.46959   0.77217   0.00000  Uiso   1.00
Ni1485 Ni    0.53041   0.37835   0.77217   0.00000  Uiso   1.00
Ni1486 Ni    0.37835   0.53041   0.77217   0.00000  Uiso   1.00
Ni1487 Ni    0.37835   0.46959   0.77217   0.00000  Uiso   1.00
Ni1488 Ni    0.46959   0.37835   0.77217   0.00000  Uiso   1.00
Ni1489 Ni    0.59124   0.65207   0.25807   0.00000  Uiso   1.00
Ni1490 Ni    0.65207   0.59124   0.25807   0.00000  Uiso   1.00
Ni1491 Ni    0.59124   0.65207   0.74193   0.00000  Uiso   1.00
Ni1492 Ni    0.65207   0.59124   0.74193   0.00000  Uiso   1.00
Ni1493 Ni    0.65207   0.40876   0.25807   0.00000  Uiso   1.00
Ni1494 Ni    0.40876   0.65207   0.25807   0.00000  Uiso   1.00
Ni1495 Ni    0.65207   0.40876   0.74193   0.00000  Uiso   1.00
Ni1496 Ni    0.40876   0.65207   0.74193   0.00000  Uiso   1.00
Ni1497 Ni    0.59124   0.34793   0.25807   0.00000  Uiso   1.00
Ni1498 Ni    0.34793   0.59124   0.25807   0.00000  Uiso   1.00
Ni1499 Ni    0.59124   0.34793   0.74193   0.00000  Uiso   1.00
Ni1500 Ni    0.34793   0.59124   0.74193   0.00000  Uiso   1.00
Ni1501 Ni    0.40876   0.34793   0.25807   0.00000  Uiso   1.00
Ni1502 Ni    0.34793   0.40876   0.25807   0.00000  Uiso   1.00
Ni1503 Ni    0.40876   0.34793   0.74193   0.00000  Uiso   1.00
Ni1504 Ni    0.34793   0.40876   0.74193   0.00000  Uiso   1.00
Ni1505 Ni    0.71289   0.50000   0.28831   0.00000  Uiso   1.00
Ni1506 Ni    0.50000   0.71289   0.28831   0.00000  Uiso   1.00
Ni1507 Ni    0.71289   0.50000   0.71169   0.00000  Uiso   1.00
Ni1508 Ni    0.50000   0.71289   0.71169   0.00000  Uiso   1.00
Ni1509 Ni    0.50000   0.28711   0.28831   0.00000  Uiso   1.00
Ni1510 Ni    0.28711   0.50000   0.28831   0.00000  Uiso   1.00
Ni1511 Ni    0.50000   0.28711   0.71169   0.00000  Uiso   1.00
Ni1512 Ni    0.28711   0.50000   0.71169   0.00000  Uiso   1.00
Ni1513 Ni    0.59124   0.74330   0.34879   0.00000  Uiso   1.00
Ni1514 Ni    0.74330   0.59124   0.34879   0.00000  Uiso   1.00
Ni1515 Ni    0.40876   0.74330   0.34879   0.00000  Uiso   1.00
Ni1516 Ni    0.74330   0.40876   0.34879   0.00000  Uiso   1.00
Ni1517 Ni    0.74330   0.59124   0.65121   0.00000  Uiso   1.00
Ni1518 Ni    0.59124   0.74330   0.65121   0.00000  Uiso   1.00
Ni1519 Ni    0.59124   0.25670   0.34879   0.00000  Uiso   1.00
Ni1520 Ni    0.25670   0.59124   0.34879   0.00000  Uiso   1.00
Ni1521 Ni    0.40876   0.74330   0.65121   0.00000  Uiso   1.00
Ni1522 Ni    0.74330   0.40876   0.65121   0.00000  Uiso   1.00
Ni1523 Ni    0.40876   0.25670   0.34879   0.00000  Uiso   1.00
Ni1524 Ni    0.25670   0.40876   0.34879   0.00000  Uiso   1.00
Ni1525 Ni    0.59124   0.25670   0.65121   0.00000  Uiso   1.00
Ni1526 Ni    0.25670   0.59124   0.65121   0.00000  Uiso   1.00
Ni1527 Ni    0.40876   0.25670   0.65121   0.00000  Uiso   1.00
Ni1528 Ni    0.25670   0.40876   0.65121   0.00000  Uiso   1.00
Ni1529 Ni    0.53041   0.77372   0.37903   0.00000  Uiso   1.00
Ni1530 Ni    0.77372   0.53041   0.37903   0.00000  Uiso   1.00
Ni1531 Ni    0.77372   0.53041   0.62097   0.00000  Uiso   1.00
Ni1532 Ni    0.53041   0.77372   0.62097   0.00000  Uiso   1.00
Ni1533 Ni    0.46959   0.77372   0.37903   0.00000  Uiso   1.00
Ni1534 Ni    0.77372   0.46959   0.37903   0.00000  Uiso   1.00
Ni1535 Ni    0.46959   0.77372   0.62097   0.00000  Uiso   1.00
Ni1536 Ni    0.77372   0.46959   0.62097   0.00000  Uiso   1.00
Ni1537 Ni    0.53041   0.22628   0.37903   0.00000  Uiso   1.00
Ni1538 Ni    0.22628   0.53041   0.37903   0.00000  Uiso   1.00
Ni1539 Ni    0.22628   0.53041   0.62097   0.00000  Uiso   1.00
Ni1540 Ni    0.53041   0.22628   0.62097   0.00000  Uiso   1.00
Ni1541 Ni    0.46959   0.22628   0.37903   0.00000  Uiso   1.00
Ni1542 Ni    0.22628   0.46959   0.37903   0.00000  Uiso   1.00
Ni1543 Ni    0.22628   0.46959   0.62097   0.00000  Uiso   1.00
Ni1544 Ni    0.46959   0.22628   0.62097   0.00000  Uiso   1.00
Ni1545 Ni    0.65207   0.74330   0.40928   0.00000  Uiso   1.00
Ni1546 Ni    0.74330   0.65207   0.40928   0.00000  Uiso   1.00
Ni1547 Ni    0.65207   0.74330   0.59072   0.00000  Uiso   1.00
Ni1548 Ni    0.74330   0.65207   0.59072   0.00000  Uiso   1.00
Ni1549 Ni    0.65207   0.25670   0.40928   0.00000  Uiso   1.00
Ni1550 Ni    0.25670   0.65207   0.40928   0.00000  Uiso   1.00
Ni1551 Ni    0.74330   0.34793   0.40928   0.00000  Uiso   1.00
Ni1552 Ni    0.34793   0.74330   0.40928   0.00000  Uiso   1.00
Ni1553 Ni    0.65207   0.25670   0.59072   0.00000  Uiso   1.00
Ni1554 Ni    0.25670   0.65207   0.59072   0.00000  Uiso   1.00
Ni1555 Ni    0.74330   0.34793   0.59072   0.00000  Uiso   1.00
Ni1556 Ni    0.34793   0.74330   0.59072   0.00000  Uiso   1.00
Ni1557 Ni    0.25670   0.34793   0.40928   0.00000  Uiso   1.00
Ni1558 Ni    0.34793   0.25670   0.40928   0.00000  Uiso   1.00
Ni1559 Ni    0.34793   0.25670   0.59072   0.00000  Uiso   1.00
Ni1560 Ni    0.25670   0.34793   0.59072   0.00000  Uiso   1.00
Ni1561 Ni    0.77372   0.62165   0.46976   0.00000  Uiso   1.00
Ni1562 Ni    0.62165   0.77372   0.46976   0.00000  Uiso   1.00
Ni1563 Ni    0.62165   0.77372   0.53024   0.00000  Uiso   1.00
Ni1564 Ni    0.77372   0.62165   0.53024   0.00000  Uiso   1.00
Ni1565 Ni    0.77372   0.37835   0.46976   0.00000  Uiso   1.00
Ni1566 Ni    0.37835   0.77372   0.46976   0.00000  Uiso   1.00
Ni1567 Ni    0.77372   0.37835   0.53024   0.00000  Uiso   1.00
Ni1568 Ni    0.37835   0.77372   0.53024   0.00000  Uiso   1.00
Ni1569 Ni    0.62165   0.22628   0.46976   0.00000  Uiso   1.00
Ni1570 Ni    0.22628   0.62165   0.46976   0.00000  Uiso   1.00
Ni1571 Ni    0.22628   0.62165   0.53024   0.00000  Uiso   1.00
Ni1572 Ni    0.62165   0.22628   0.53024   0.00000  Uiso   1.00
Ni1573 Ni    0.37835   0.22628   0.46976   0.00000  Uiso   1.00
Ni1574 Ni    0.22628   0.37835   0.46976   0.00000  Uiso   1.00
Ni1575 Ni    0.22628   0.37835   0.53024   0.00000  Uiso   1.00
Ni1576 Ni    0.37835   0.22628   0.53024   0.00000  Uiso   1.00
Ni1577 Ni    0.71289   0.71289   0.50000   0.00000  Uiso   1.00
Ni1578 Ni    0.71289   0.28711   0.50000   0.00000  Uiso   1.00
Ni1579 Ni    0.28711   0.71289   0.50000   0.00000  Uiso   1.00
Ni1580 Ni    0.28711   0.28711   0.50000   0.00000  Uiso   1.00
Ni1581 Ni    0.50000   0.50000   0.19758   0.00000  Uiso   1.00
Ni1582 Ni    0.50000   0.50000   0.80242   0.00000  Uiso   1.00
Ni1583 Ni    0.74330   0.50000   0.31855   0.00000  Uiso   1.00
Ni1584 Ni    0.50000   0.74330   0.31855   0.00000  Uiso   1.00
Ni1585 Ni    0.25670   0.50000   0.31855   0.00000  Uiso   1.00
Ni1586 Ni    0.50000   0.25670   0.31855   0.00000  Uiso   1.00
Ni1587 Ni    0.74330   0.50000   0.68145   0.00000  Uiso   1.00
Ni1588 Ni    0.50000   0.74330   0.68145   0.00000  Uiso   1.00
Ni1589 Ni    0.25670   0.50000   0.68145   0.00000  Uiso   1.00
Ni1590 Ni    0.50000   0.25670   0.68145   0.00000  Uiso   1.00
Ni1591 Ni    0.56083   0.71289   0.28831   0.00000  Uiso   1.00
Ni1592 Ni    0.71289   0.56083   0.28831   0.00000  Uiso   1.00
Ni1593 Ni    0.71289   0.43917   0.28831   0.00000  Uiso   1.00
Ni1594 Ni    0.43917   0.71289   0.28831   0.00000  Uiso   1.00
Ni1595 Ni    0.56083   0.71289   0.71169   0.00000  Uiso   1.00
Ni1596 Ni    0.71289   0.56083   0.71169   0.00000  Uiso   1.00
Ni1597 Ni    0.71289   0.43917   0.71169   0.00000  Uiso   1.00
Ni1598 Ni    0.43917   0.71289   0.71169   0.00000  Uiso   1.00
Ni1599 Ni    0.56083   0.28711   0.28831   0.00000  Uiso   1.00
Ni1600 Ni    0.28711   0.56083   0.28831   0.00000  Uiso   1.00
Ni1601 Ni    0.43917   0.28711   0.28831   0.00000  Uiso   1.00
Ni1602 Ni    0.28711   0.43917   0.28831   0.00000  Uiso   1.00
Ni1603 Ni    0.56083   0.28711   0.71169   0.00000  Uiso   1.00
Ni1604 Ni    0.28711   0.56083   0.71169   0.00000  Uiso   1.00
Ni1605 Ni    0.43917   0.28711   0.71169   0.00000  Uiso   1.00
Ni1606 Ni    0.28711   0.43917   0.71169   0.00000  Uiso   1.00
Ni1607 Ni    0.80413   0.53041   0.46976   0.00000  Uiso   1.00
Ni1608 Ni    0.53041   0.80413   0.46976   0.00000  Uiso   1.00
Ni1609 Ni    0.80413   0.53041   0.53024   0.00000  Uiso   1.00
Ni1610 Ni    0.53041   0.80413   0.53024   0.00000  Uiso   1.00
Ni1611 Ni    0.46959   0.80413   0.46976   0.00000  Uiso   1.00
Ni1612 Ni    0.80413   0.46959   0.46976   0.00000  Uiso   1.00
Ni1613 Ni    0.80413   0.46959   0.53024   0.00000  Uiso   1.00
Ni1614 Ni    0.46959   0.80413   0.53024   0.00000  Uiso   1.00
Ni1615 Ni    0.19587   0.53041   0.46976   0.00000  Uiso   1.00
Ni1616 Ni    0.53041   0.19587   0.46976   0.00000  Uiso   1.00
Ni1617 Ni    0.19587   0.53041   0.53024   0.00000  Uiso   1.00
Ni1618 Ni    0.53041   0.19587   0.53024   0.00000  Uiso   1.00
Ni1619 Ni    0.46959   0.19587   0.46976   0.00000  Uiso   1.00
Ni1620 Ni    0.19587   0.46959   0.46976   0.00000  Uiso   1.00
Ni1621 Ni    0.46959   0.19587   0.53024   0.00000  Uiso   1.00
Ni1622 Ni    0.19587   0.46959   0.53024   0.00000  Uiso   1.00
Ni1623 Ni    0.50000   0.56083   0.19758   0.00000  Uiso   1.00
Ni1624 Ni    0.56083   0.50000   0.19758   0.00000  Uiso   1.00
Ni1625 Ni    0.50000   0.43917   0.19758   0.00000  Uiso   1.00
Ni1626 Ni    0.43917   0.50000   0.19758   0.00000  Uiso   1.00
Ni1627 Ni    0.50000   0.56083   0.80242   0.00000  Uiso   1.00
Ni1628 Ni    0.56083   0.50000   0.80242   0.00000  Uiso   1.00
Ni1629 Ni    0.43917   0.50000   0.80242   0.00000  Uiso   1.00
Ni1630 Ni    0.50000   0.43917   0.80242   0.00000  Uiso   1.00
Ni1631 Ni    0.56083   0.74330   0.31855   0.00000  Uiso   1.00
Ni1632 Ni    0.74330   0.56083   0.31855   0.00000  Uiso   1.00
Ni1633 Ni    0.74330   0.43917   0.31855   0.00000  Uiso   1.00
Ni1634 Ni    0.43917   0.74330   0.31855   0.00000  Uiso   1.00
Ni1635 Ni    0.56083   0.25670   0.31855   0.00000  Uiso   1.00
Ni1636 Ni    0.25670   0.56083   0.31855   0.00000  Uiso   1.00
Ni1637 Ni    0.56083   0.74330   0.68145   0.00000  Uiso   1.00
Ni1638 Ni    0.74330   0.56083   0.68145   0.00000  Uiso   1.00
Ni1639 Ni    0.43917   0.25670   0.31855   0.00000  Uiso   1.00
Ni1640 Ni    0.25670   0.43917   0.31855   0.00000  Uiso   1.00
Ni1641 Ni    0.43917   0.74330   0.68145   0.00000  Uiso   1.00
Ni1642 Ni    0.74330   0.43917   0.68145   0.00000  Uiso   1.00
Ni1643 Ni    0.56083   0.25670   0.68145   0.00000  Uiso   1.00
Ni1644 Ni    0.25670   0.56083   0.68145   0.00000  Uiso   1.00
Ni1645 Ni    0.43917   0.25670   0.68145   0.00000  Uiso   1.00
Ni1646 Ni    0.25670   0.43917   0.68145   0.00000  Uiso   1.00
Ni1647 Ni    0.74330   0.68248   0.43952   0.00000  Uiso   1.00
Ni1648 Ni    0.68248   0.74330   0.43952   0.00000  Uiso   1.00
Ni1649 Ni    0.80413   0.50000   0.43952   0.00000  Uiso   1.00
Ni1650 Ni    0.50000   0.80413   0.43952   0.00000  Uiso   1.00
Ni1651 Ni    0.74330   0.68248   0.56048   0.00000  Uiso   1.00
Ni1652 Ni    0.68248   0.74330   0.56048   0.00000  Uiso   1.00
Ni1653 Ni    0.50000   0.80413   0.56048   0.00000  Uiso   1.00
Ni1654 Ni    0.80413   0.50000   0.56048   0.00000  Uiso   1.00
Ni1655 Ni    0.74330   0.31752   0.43952   0.00000  Uiso   1.00
Ni1656 Ni    0.31752   0.74330   0.43952   0.00000  Uiso   1.00
Ni1657 Ni    0.25670   0.68248   0.43952   0.00000  Uiso   1.00
Ni1658 Ni    0.68248   0.25670   0.43952   0.00000  Uiso   1.00
Ni1659 Ni    0.74330   0.31752   0.56048   0.00000  Uiso   1.00
Ni1660 Ni    0.31752   0.74330   0.56048   0.00000  Uiso   1.00
Ni1661 Ni    0.68248   0.25670   0.56048   0.00000  Uiso   1.00
Ni1662 Ni    0.25670   0.68248   0.56048   0.00000  Uiso   1.00
Ni1663 Ni    0.50000   0.19587   0.43952   0.00000  Uiso   1.00
Ni1664 Ni    0.19587   0.50000   0.43952   0.00000  Uiso   1.00
Ni1665 Ni    0.31752   0.25670   0.43952   0.00000  Uiso   1.00
Ni1666 Ni    0.25670   0.31752   0.43952   0.00000  Uiso   1.00
Ni1667 Ni    0.50000   0.19587   0.56048   0.00000  Uiso   1.00
Ni1668 Ni    0.19587   0.50000   0.56048   0.00000  Uiso   1.00
Ni1669 Ni    0.25670   0.31752   0.56048   0.00000  Uiso   1.00
Ni1670 Ni    0.31752   0.25670   0.56048   0.00000  Uiso   1.00
Ni1671 Ni    0.50000   0.65207   0.22783   0.00000  Uiso   1.00
Ni1672 Ni    0.65207   0.50000   0.22783   0.00000  Uiso   1.00
Ni1673 Ni    0.59124   0.62165   0.22783   0.00000  Uiso   1.00
Ni1674 Ni    0.62165   0.59124   0.22783   0.00000  Uiso   1.00
Ni1675 Ni    0.59124   0.37835   0.22783   0.00000  Uiso   1.00
Ni1676 Ni    0.37835   0.59124   0.22783   0.00000  Uiso   1.00
Ni1677 Ni    0.62165   0.40876   0.22783   0.00000  Uiso   1.00
Ni1678 Ni    0.40876   0.62165   0.22783   0.00000  Uiso   1.00
Ni1679 Ni    0.40876   0.37835   0.22783   0.00000  Uiso   1.00
Ni1680 Ni    0.37835   0.40876   0.22783   0.00000  Uiso   1.00
Ni1681 Ni    0.50000   0.34793   0.22783   0.00000  Uiso   1.00
Ni1682 Ni    0.34793   0.50000   0.22783   0.00000  Uiso   1.00
Ni1683 Ni    0.50000   0.65207   0.77217   0.00000  Uiso   1.00
Ni1684 Ni    0.65207   0.50000   0.77217   0.00000  Uiso   1.00
Ni1685 Ni    0.59124   0.62165   0.77217   0.00000  Uiso   1.00
Ni1686 Ni    0.62165   0.59124   0.77217   0.00000  Uiso   1.00
Ni1687 Ni    0.59124   0.37835   0.77217   0.00000  Uiso   1.00
Ni1688 Ni    0.37835   0.59124   0.77217   0.00000  Uiso   1.00
Ni1689 Ni    0.62165   0.40876   0.77217   0.00000  Uiso   1.00
Ni1690 Ni    0.40876   0.62165   0.77217   0.00000  Uiso   1.00
Ni1691 Ni    0.37835   0.40876   0.77217   0.00000  Uiso   1.00
Ni1692 Ni    0.40876   0.37835   0.77217   0.00000  Uiso   1.00
Ni1693 Ni    0.34793   0.50000   0.77217   0.00000  Uiso   1.00
Ni1694 Ni    0.50000   0.34793   0.77217   0.00000  Uiso   1.00
Ni1695 Ni    0.77372   0.50000   0.34879   0.00000  Uiso   1.00
Ni1696 Ni    0.50000   0.77372   0.34879   0.00000  Uiso   1.00
Ni1697 Ni    0.77372   0.50000   0.65121   0.00000  Uiso   1.00
Ni1698 Ni    0.50000   0.77372   0.65121   0.00000  Uiso   1.00
Ni1699 Ni    0.50000   0.22628   0.34879   0.00000  Uiso   1.00
Ni1700 Ni    0.22628   0.50000   0.34879   0.00000  Uiso   1.00
Ni1701 Ni    0.22628   0.50000   0.65121   0.00000  Uiso   1.00
Ni1702 Ni    0.50000   0.22628   0.65121   0.00000  Uiso   1.00
Ni1703 Ni    0.77372   0.59124   0.37903   0.00000  Uiso   1.00
Ni1704 Ni    0.59124   0.77372   0.37903   0.00000  Uiso   1.00
Ni1705 Ni    0.77372   0.59124   0.62097   0.00000  Uiso   1.00
Ni1706 Ni    0.59124   0.77372   0.62097   0.00000  Uiso   1.00
Ni1707 Ni    0.77372   0.40876   0.37903   0.00000  Uiso   1.00
Ni1708 Ni    0.40876   0.77372   0.37903   0.00000  Uiso   1.00
Ni1709 Ni    0.40876   0.77372   0.62097   0.00000  Uiso   1.00
Ni1710 Ni    0.77372   0.40876   0.62097   0.00000  Uiso   1.00
Ni1711 Ni    0.59124   0.22628   0.37903   0.00000  Uiso   1.00
Ni1712 Ni    0.22628   0.59124   0.37903   0.00000  Uiso   1.00
Ni1713 Ni    0.59124   0.22628   0.62097   0.00000  Uiso   1.00
Ni1714 Ni    0.22628   0.59124   0.62097   0.00000  Uiso   1.00
Ni1715 Ni    0.22628   0.40876   0.37903   0.00000  Uiso   1.00
Ni1716 Ni    0.40876   0.22628   0.37903   0.00000  Uiso   1.00
Ni1717 Ni    0.22628   0.40876   0.62097   0.00000  Uiso   1.00
Ni1718 Ni    0.40876   0.22628   0.62097   0.00000  Uiso   1.00
Ni1719 Ni    0.77372   0.62165   0.40928   0.00000  Uiso   1.00
Ni1720 Ni    0.62165   0.77372   0.40928   0.00000  Uiso   1.00
Ni1721 Ni    0.77372   0.37835   0.40928   0.00000  Uiso   1.00
Ni1722 Ni    0.37835   0.77372   0.40928   0.00000  Uiso   1.00
Ni1723 Ni    0.62165   0.77372   0.59072   0.00000  Uiso   1.00
Ni1724 Ni    0.77372   0.62165   0.59072   0.00000  Uiso   1.00
Ni1725 Ni    0.77372   0.37835   0.59072   0.00000  Uiso   1.00
Ni1726 Ni    0.37835   0.77372   0.59072   0.00000  Uiso   1.00
Ni1727 Ni    0.62165   0.22628   0.40928   0.00000  Uiso   1.00
Ni1728 Ni    0.22628   0.62165   0.40928   0.00000  Uiso   1.00
Ni1729 Ni    0.22628   0.37835   0.40928   0.00000  Uiso   1.00
Ni1730 Ni    0.37835   0.22628   0.40928   0.00000  Uiso   1.00
Ni1731 Ni    0.22628   0.62165   0.59072   0.00000  Uiso   1.00
Ni1732 Ni    0.62165   0.22628   0.59072   0.00000  Uiso   1.00
Ni1733 Ni    0.22628   0.37835   0.59072   0.00000  Uiso   1.00
Ni1734 Ni    0.37835   0.22628   0.59072   0.00000  Uiso   1.00
Ni1735 Ni    0.65207   0.77372   0.50000   0.00000  Uiso   1.00
Ni1736 Ni    0.77372   0.65207   0.50000   0.00000  Uiso   1.00
Ni1737 Ni    0.77372   0.34793   0.50000   0.00000  Uiso   1.00
Ni1738 Ni    0.34793   0.77372   0.50000   0.00000  Uiso   1.00
Ni1739 Ni    0.22628   0.65207   0.50000   0.00000  Uiso   1.00
Ni1740 Ni    0.65207   0.22628   0.50000   0.00000  Uiso   1.00
Ni1741 Ni    0.22628   0.34793   0.50000   0.00000  Uiso   1.00
Ni1742 Ni    0.34793   0.22628   0.50000   0.00000  Uiso   1.00
Ni1743 Ni    0.56083   0.56083   0.19758   0.00000  Uiso   1.00
Ni1744 Ni    0.43917   0.56083   0.19758   0.00000  Uiso   1.00
Ni1745 Ni    0.56083   0.43917   0.19758   0.00000  Uiso   1.00
Ni1746 Ni    0.43917   0.43917   0.19758   0.00000  Uiso   1.00
Ni1747 Ni    0.56083   0.56083   0.80242   0.00000  Uiso   1.00
Ni1748 Ni    0.56083   0.43917   0.80242   0.00000  Uiso   1.00
Ni1749 Ni    0.43917   0.56083   0.80242   0.00000  Uiso   1.00
Ni1750 Ni    0.43917   0.43917   0.80242   0.00000  Uiso   1.00
Ni1751 Ni    0.68248   0.68248   0.31855   0.00000  Uiso   1.00
Ni1752 Ni    0.68248   0.31752   0.31855   0.00000  Uiso   1.00
Ni1753 Ni    0.31752   0.68248   0.31855   0.00000  Uiso   1.00
Ni1754 Ni    0.68248   0.68248   0.68145   0.00000  Uiso   1.00
Ni1755 Ni    0.31752   0.31752   0.31855   0.00000  Uiso   1.00
Ni1756 Ni    0.68248   0.31752   0.68145   0.00000  Uiso   1.00
Ni1757 Ni    0.31752   0.68248   0.68145   0.00000  Uiso   1.00
Ni1758 Ni    0.31752   0.31752   0.68145   0.00000  Uiso   1.00
Ni1759 Ni    0.56083   0.80413   0.43952   0.00000  Uiso   1.00
Ni1760 Ni    0.80413   0.56083   0.43952   0.00000  Uiso   1.00
Ni1761 Ni    0.43917   0.80413   0.43952   0.00000  Uiso   1.00
Ni1762 Ni    0.80413   0.43917   0.43952   0.00000  Uiso   1.00
Ni1763 Ni    0.80413   0.56083   0.56048   0.00000  Uiso   1.00
Ni1764 Ni    0.56083   0.80413   0.56048   0.00000  Uiso   1.00
Ni1765 Ni    0.43917   0.80413   0.56048   0.00000  Uiso   1.00
Ni1766 Ni    0.80413   0.43917   0.56048   0.00000  Uiso   1.00
Ni1767 Ni    0.56083   0.19587   0.43952   0.00000  Uiso   1.00
Ni1768 Ni    0.19587   0.56083   0.43952   0.00000  Uiso   1.00
Ni1769 Ni    0.43917   0.19587   0.43952   0.00000  Uiso   1.00
Ni1770 Ni    0.19587   0.43917   0.43952   0.00000  Uiso   1.00
Ni1771 Ni    0.56083   0.19587   0.56048   0.00000  Uiso   1.00
Ni1772 Ni    0.19587   0.56083   0.56048   0.00000  Uiso   1.00
Ni1773 Ni    0.43917   0.19587   0.56048   0.00000  Uiso   1.00
Ni1774 Ni    0.19587   0.43917   0.56048   0.00000  Uiso   1.00
Ni1775 Ni    0.56083   0.65207   0.22783   0.00000  Uiso   1.00
Ni1776 Ni    0.65207   0.56083   0.22783   0.00000  Uiso   1.00
Ni1777 Ni    0.65207   0.43917   0.22783   0.00000  Uiso   1.00
Ni1778 Ni    0.43917   0.65207   0.22783   0.00000  Uiso   1.00
Ni1779 Ni    0.56083   0.34793   0.22783   0.00000  Uiso   1.00
Ni1780 Ni    0.34793   0.56083   0.22783   0.00000  Uiso   1.00
Ni1781 Ni    0.43917   0.34793   0.22783   0.00000  Uiso   1.00
Ni1782 Ni    0.34793   0.43917   0.22783   0.00000  Uiso   1.00
Ni1783 Ni    0.56083   0.65207   0.77217   0.00000  Uiso   1.00
Ni1784 Ni    0.65207   0.56083   0.77217   0.00000  Uiso   1.00
Ni1785 Ni    0.65207   0.43917   0.77217   0.00000  Uiso   1.00
Ni1786 Ni    0.43917   0.65207   0.77217   0.00000  Uiso   1.00
Ni1787 Ni    0.56083   0.34793   0.77217   0.00000  Uiso   1.00
Ni1788 Ni    0.34793   0.56083   0.77217   0.00000  Uiso   1.00
Ni1789 Ni    0.43917   0.34793   0.77217   0.00000  Uiso   1.00
Ni1790 Ni    0.34793   0.43917   0.77217   0.00000  Uiso   1.00
Ni1791 Ni    0.65207   0.68248   0.28831   0.00000  Uiso   1.00
Ni1792 Ni    0.68248   0.65207   0.28831   0.00000  Uiso   1.00
Ni1793 Ni    0.31752   0.65207   0.28831   0.00000  Uiso   1.00
Ni1794 Ni    0.65207   0.31752   0.28831   0.00000  Uiso   1.00
Ni1795 Ni    0.68248   0.65207   0.71169   0.00000  Uiso   1.00
Ni1796 Ni    0.65207   0.68248   0.71169   0.00000  Uiso   1.00
Ni1797 Ni    0.68248   0.34793   0.28831   0.00000  Uiso   1.00
Ni1798 Ni    0.34793   0.68248   0.28831   0.00000  Uiso   1.00
Ni1799 Ni    0.65207   0.31752   0.71169   0.00000  Uiso   1.00
Ni1800 Ni    0.31752   0.65207   0.71169   0.00000  Uiso   1.00
Ni1801 Ni    0.31752   0.34793   0.28831   0.00000  Uiso   1.00
Ni1802 Ni    0.34793   0.31752   0.28831   0.00000  Uiso   1.00
Ni1803 Ni    0.34793   0.68248   0.71169   0.00000  Uiso   1.00
Ni1804 Ni    0.68248   0.34793   0.71169   0.00000  Uiso   1.00
Ni1805 Ni    0.31752   0.34793   0.71169   0.00000  Uiso   1.00
Ni1806 Ni    0.34793   0.31752   0.71169   0.00000  Uiso   1.00
Ni1807 Ni    0.77372   0.56083   0.34879   0.00000  Uiso   1.00
Ni1808 Ni    0.56083   0.77372   0.34879   0.00000  Uiso   1.00
Ni1809 Ni    0.71289   0.68248   0.34879   0.00000  Uiso   1.00
Ni1810 Ni    0.68248   0.71289   0.34879   0.00000  Uiso   1.00
Ni1811 Ni    0.77372   0.43917   0.34879   0.00000  Uiso   1.00
Ni1812 Ni    0.43917   0.77372   0.34879   0.00000  Uiso   1.00
Ni1813 Ni    0.71289   0.31752   0.34879   0.00000  Uiso   1.00
Ni1814 Ni    0.31752   0.71289   0.34879   0.00000  Uiso   1.00
Ni1815 Ni    0.56083   0.77372   0.65121   0.00000  Uiso   1.00
Ni1816 Ni    0.77372   0.56083   0.65121   0.00000  Uiso   1.00
Ni1817 Ni    0.68248   0.71289   0.65121   0.00000  Uiso   1.00
Ni1818 Ni    0.71289   0.68248   0.65121   0.00000  Uiso   1.00
Ni1819 Ni    0.77372   0.43917   0.65121   0.00000  Uiso   1.00
Ni1820 Ni    0.43917   0.77372   0.65121   0.00000  Uiso   1.00
Ni1821 Ni    0.71289   0.31752   0.65121   0.00000  Uiso   1.00
Ni1822 Ni    0.31752   0.71289   0.65121   0.00000  Uiso   1.00
Ni1823 Ni    0.28711   0.68248   0.34879   0.00000  Uiso   1.00
Ni1824 Ni    0.68248   0.28711   0.34879   0.00000  Uiso   1.00
Ni1825 Ni    0.22628   0.56083   0.34879   0.00000  Uiso   1.00
Ni1826 Ni    0.56083   0.22628   0.34879   0.00000  Uiso   1.00
Ni1827 Ni    0.31752   0.28711   0.34879   0.00000  Uiso   1.00
Ni1828 Ni    0.28711   0.31752   0.34879   0.00000  Uiso   1.00
Ni1829 Ni    0.22628   0.43917   0.34879   0.00000  Uiso   1.00
Ni1830 Ni    0.43917   0.22628   0.34879   0.00000  Uiso   1.00
Ni1831 Ni    0.68248   0.28711   0.65121   0.00000  Uiso   1.00
Ni1832 Ni    0.28711   0.68248   0.65121   0.00000  Uiso   1.00
Ni1833 Ni    0.22628   0.56083   0.65121   0.00000  Uiso   1.00
Ni1834 Ni    0.56083   0.22628   0.65121   0.00000  Uiso   1.00
Ni1835 Ni    0.31752   0.28711   0.65121   0.00000  Uiso   1.00
Ni1836 Ni    0.28711   0.31752   0.65121   0.00000  Uiso   1.00
Ni1837 Ni    0.22628   0.43917   0.65121   0.00000  Uiso   1.00
Ni1838 Ni    0.43917   0.22628   0.65121   0.00000  Uiso   1.00
Ni1839 Ni    0.80413   0.53041   0.40928   0.00000  Uiso   1.00
Ni1840 Ni    0.53041   0.80413   0.40928   0.00000  Uiso   1.00
Ni1841 Ni    0.46959   0.80413   0.40928   0.00000  Uiso   1.00
Ni1842 Ni    0.80413   0.46959   0.40928   0.00000  Uiso   1.00
Ni1843 Ni    0.53041   0.80413   0.59072   0.00000  Uiso   1.00
Ni1844 Ni    0.80413   0.53041   0.59072   0.00000  Uiso   1.00
Ni1845 Ni    0.80413   0.46959   0.59072   0.00000  Uiso   1.00
Ni1846 Ni    0.46959   0.80413   0.59072   0.00000  Uiso   1.00
Ni1847 Ni    0.19587   0.53041   0.40928   0.00000  Uiso   1.00
Ni1848 Ni    0.53041   0.19587   0.40928   0.00000  Uiso   1.00
Ni1849 Ni    0.46959   0.19587   0.40928   0.00000  Uiso   1.00
Ni1850 Ni    0.19587   0.46959   0.40928   0.00000  Uiso   1.00
Ni1851 Ni    0.53041   0.19587   0.59072   0.00000  Uiso   1.00
Ni1852 Ni    0.19587   0.53041   0.59072   0.00000  Uiso   1.00
Ni1853 Ni    0.19587   0.46959   0.59072   0.00000  Uiso   1.00
Ni1854 Ni    0.46959   0.19587   0.59072   0.00000  Uiso   1.00
Ni1855 Ni    0.59124   0.80413   0.46976   0.00000  Uiso   1.00
Ni1856 Ni    0.80413   0.59124   0.46976   0.00000  Uiso   1.00
Ni1857 Ni    0.59124   0.80413   0.53024   0.00000  Uiso   1.00
Ni1858 Ni    0.80413   0.59124   0.53024   0.00000  Uiso   1.00
Ni1859 Ni    0.80413   0.40876   0.46976   0.00000  Uiso   1.00
Ni1860 Ni    0.40876   0.80413   0.46976   0.00000  Uiso   1.00
Ni1861 Ni    0.80413   0.40876   0.53024   0.00000  Uiso   1.00
Ni1862 Ni    0.40876   0.80413   0.53024   0.00000  Uiso   1.00
Ni1863 Ni    0.59124   0.19587   0.46976   0.00000  Uiso   1.00
Ni1864 Ni    0.19587   0.59124   0.46976   0.00000  Uiso   1.00
Ni1865 Ni    0.59124   0.19587   0.53024   0.00000  Uiso   1.00
Ni1866 Ni    0.19587   0.59124   0.53024   0.00000  Uiso   1.00
Ni1867 Ni    0.40876   0.19587   0.46976   0.00000  Uiso   1.00
Ni1868 Ni    0.19587   0.40876   0.46976   0.00000  Uiso   1.00
Ni1869 Ni    0.19587   0.40876   0.53024   0.00000  Uiso   1.00
Ni1870 Ni    0.40876   0.19587   0.53024   0.00000  Uiso   1.00
Ni1871 Ni    0.65207   0.65207   0.25807   0.00000  Uiso   1.00
Ni1872 Ni    0.53041   0.71289   0.25807   0.00000  Uiso   1.00
Ni1873 Ni    0.71289   0.53041   0.25807   0.00000  Uiso   1.00
Ni1874 Ni    0.65207   0.65207   0.74193   0.00000  Uiso   1.00
Ni1875 Ni    0.71289   0.46959   0.25807   0.00000  Uiso   1.00
Ni1876 Ni    0.46959   0.71289   0.25807   0.00000  Uiso   1.00
Ni1877 Ni    0.53041   0.71289   0.74193   0.00000  Uiso   1.00
Ni1878 Ni    0.71289   0.53041   0.74193   0.00000  Uiso   1.00
Ni1879 Ni    0.71289   0.46959   0.74193   0.00000  Uiso   1.00
Ni1880 Ni    0.46959   0.71289   0.74193   0.00000  Uiso   1.00
Ni1881 Ni    0.65207   0.34793   0.25807   0.00000  Uiso   1.00
Ni1882 Ni    0.34793   0.65207   0.25807   0.00000  Uiso   1.00
Ni1883 Ni    0.65207   0.34793   0.74193   0.00000  Uiso   1.00
Ni1884 Ni    0.34793   0.65207   0.74193   0.00000  Uiso   1.00
Ni1885 Ni    0.28711   0.53041   0.25807   0.00000  Uiso   1.00
Ni1886 Ni    0.53041   0.28711   0.25807   0.00000  Uiso   1.00
Ni1887 Ni    0.46959   0.28711   0.25807   0.00000  Uiso   1.00
Ni1888 Ni    0.28711   0.46959   0.25807   0.00000  Uiso   1.00
Ni1889 Ni    0.53041   0.28711   0.74193   0.00000  Uiso   1.00
Ni1890 Ni    0.28711   0.53041   0.74193   0.00000  Uiso   1.00
Ni1891 Ni    0.34793   0.34793   0.25807   0.00000  Uiso   1.00
Ni1892 Ni    0.46959   0.28711   0.74193   0.00000  Uiso   1.00
Ni1893 Ni    0.28711   0.46959   0.74193   0.00000  Uiso   1.00
Ni1894 Ni    0.34793   0.34793   0.74193   0.00000  Uiso   1.00
Ni1895 Ni    0.62165   0.71289   0.28831   0.00000  Uiso   1.00
Ni1896 Ni    0.71289   0.62165   0.28831   0.00000  Uiso   1.00
Ni1897 Ni    0.71289   0.37835   0.28831   0.00000  Uiso   1.00
Ni1898 Ni    0.37835   0.71289   0.28831   0.00000  Uiso   1.00
Ni1899 Ni    0.53041   0.74330   0.28831   0.00000  Uiso   1.00
Ni1900 Ni    0.74330   0.53041   0.28831   0.00000  Uiso   1.00
Ni1901 Ni    0.74330   0.46959   0.28831   0.00000  Uiso   1.00
Ni1902 Ni    0.46959   0.74330   0.28831   0.00000  Uiso   1.00
Ni1903 Ni    0.62165   0.71289   0.71169   0.00000  Uiso   1.00
Ni1904 Ni    0.71289   0.62165   0.71169   0.00000  Uiso   1.00
Ni1905 Ni    0.53041   0.25670   0.28831   0.00000  Uiso   1.00
Ni1906 Ni    0.25670   0.53041   0.28831   0.00000  Uiso   1.00
Ni1907 Ni    0.71289   0.37835   0.71169   0.00000  Uiso   1.00
Ni1908 Ni    0.37835   0.71289   0.71169   0.00000  Uiso   1.00
Ni1909 Ni    0.46959   0.25670   0.28831   0.00000  Uiso   1.00
Ni1910 Ni    0.25670   0.46959   0.28831   0.00000  Uiso   1.00
Ni1911 Ni    0.53041   0.74330   0.71169   0.00000  Uiso   1.00
Ni1912 Ni    0.74330   0.53041   0.71169   0.00000  Uiso   1.00
Ni1913 Ni    0.28711   0.62165   0.28831   0.00000  Uiso   1.00
Ni1914 Ni    0.62165   0.28711   0.28831   0.00000  Uiso   1.00
Ni1915 Ni    0.46959   0.74330   0.71169   0.00000  Uiso   1.00
Ni1916 Ni    0.74330   0.46959   0.71169   0.00000  Uiso   1.00
Ni1917 Ni    0.37835   0.28711   0.28831   0.00000  Uiso   1.00
Ni1918 Ni    0.28711   0.37835   0.28831   0.00000  Uiso   1.00
Ni1919 Ni    0.53041   0.25670   0.71169   0.00000  Uiso   1.00
Ni1920 Ni    0.25670   0.53041   0.71169   0.00000  Uiso   1.00
Ni1921 Ni    0.25670   0.46959   0.71169   0.00000  Uiso   1.00
Ni1922 Ni    0.46959   0.25670   0.71169   0.00000  Uiso   1.00
Ni1923 Ni    0.28711   0.62165   0.71169   0.00000  Uiso   1.00
Ni1924 Ni    0.62165   0.28711   0.71169   0.00000  Uiso   1.00
Ni1925 Ni    0.37835   0.28711   0.71169   0.00000  Uiso   1.00
Ni1926 Ni    0.28711   0.37835   0.71169   0.00000  Uiso   1.00
Ni1927 Ni    0.74330   0.65207   0.34879   0.00000  Uiso   1.00
Ni1928 Ni    0.65207   0.74330   0.34879   0.00000  Uiso   1.00
Ni1929 Ni    0.74330   0.65207   0.65121   0.00000  Uiso   1.00
Ni1930 Ni    0.65207   0.74330   0.65121   0.00000  Uiso   1.00
Ni1931 Ni    0.65207   0.25670   0.34879   0.00000  Uiso   1.00
Ni1932 Ni    0.25670   0.65207   0.34879   0.00000  Uiso   1.00
Ni1933 Ni    0.74330   0.34793   0.34879   0.00000  Uiso   1.00
Ni1934 Ni    0.34793   0.74330   0.34879   0.00000  Uiso   1.00
Ni1935 Ni    0.25670   0.65207   0.65121   0.00000  Uiso   1.00
Ni1936 Ni    0.65207   0.25670   0.65121   0.00000  Uiso   1.00
Ni1937 Ni    0.34793   0.74330   0.65121   0.00000  Uiso   1.00
Ni1938 Ni    0.74330   0.34793   0.65121   0.00000  Uiso   1.00
Ni1939 Ni    0.25670   0.34793   0.34879   0.00000  Uiso   1.00
Ni1940 Ni    0.34793   0.25670   0.34879   0.00000  Uiso   1.00
Ni1941 Ni    0.25670   0.34793   0.65121   0.00000  Uiso   1.00
Ni1942 Ni    0.34793   0.25670   0.65121   0.00000  Uiso   1.00
Ni1943 Ni    0.71289   0.71289   0.37903   0.00000  Uiso   1.00
Ni1944 Ni    0.71289   0.71289   0.62097   0.00000  Uiso   1.00
Ni1945 Ni    0.71289   0.28711   0.37903   0.00000  Uiso   1.00
Ni1946 Ni    0.28711   0.71289   0.37903   0.00000  Uiso   1.00
Ni1947 Ni    0.71289   0.28711   0.62097   0.00000  Uiso   1.00
Ni1948 Ni    0.28711   0.71289   0.62097   0.00000  Uiso   1.00
Ni1949 Ni    0.28711   0.28711   0.37903   0.00000  Uiso   1.00
Ni1950 Ni    0.28711   0.28711   0.62097   0.00000  Uiso   1.00
Ni1951 Ni    0.74330   0.71289   0.46976   0.00000  Uiso   1.00
Ni1952 Ni    0.71289   0.74330   0.46976   0.00000  Uiso   1.00
Ni1953 Ni    0.71289   0.74330   0.53024   0.00000  Uiso   1.00
Ni1954 Ni    0.74330   0.71289   0.53024   0.00000  Uiso   1.00
Ni1955 Ni    0.25670   0.71289   0.46976   0.00000  Uiso   1.00
Ni1956 Ni    0.71289   0.25670   0.46976   0.00000  Uiso   1.00
Ni1957 Ni    0.71289   0.25670   0.53024   0.00000  Uiso   1.00
Ni1958 Ni    0.25670   0.71289   0.53024   0.00000  Uiso   1.00
Ni1959 Ni    0.74330   0.28711   0.46976   0.00000  Uiso   1.00
Ni1960 Ni    0.28711   0.74330   0.46976   0.00000  Uiso   1.00
Ni1961 Ni    0.74330   0.28711   0.53024   0.00000  Uiso   1.00
Ni1962 Ni    0.28711   0.74330   0.53024   0.00000  Uiso   1.00
Ni1963 Ni    0.28711   0.25670   0.46976   0.00000  Uiso   1.00
Ni1964 Ni    0.25670   0.28711   0.46976   0.00000  Uiso   1.00
Ni1965 Ni    0.28711   0.25670   0.53024   0.00000  Uiso   1.00
Ni1966 Ni    0.25670   0.28711   0.53024   0.00000  Uiso   1.00
Ni1967 Ni    0.50000   0.62165   0.19758   0.00000  Uiso   1.00
Ni1968 Ni    0.62165   0.50000   0.19758   0.00000  Uiso   1.00
Ni1969 Ni    0.37835   0.50000   0.19758   0.00000  Uiso   1.00
Ni1970 Ni    0.50000   0.37835   0.19758   0.00000  Uiso   1.00
Ni1971 Ni    0.50000   0.62165   0.80242   0.00000  Uiso   1.00
Ni1972 Ni    0.62165   0.50000   0.80242   0.00000  Uiso   1.00
Ni1973 Ni    0.50000   0.37835   0.80242   0.00000  Uiso   1.00
Ni1974 Ni    0.37835   0.50000   0.80242   0.00000  Uiso   1.00
Ni1975 Ni    0.74330   0.62165   0.31855   0.00000  Uiso   1.00
Ni1976 Ni    0.62165   0.74330   0.31855   0.00000  Uiso   1.00
Ni1977 Ni    0.74330   0.37835   0.31855   0.00000  Uiso   1.00
Ni1978 Ni    0.37835   0.74330   0.31855   0.00000  Uiso   1.00
Ni1979 Ni    0.62165   0.25670   0.31855   0.00000  Uiso   1.00
Ni1980 Ni    0.25670   0.62165   0.31855   0.00000  Uiso   1.00
Ni1981 Ni    0.62165   0.74330   0.68145   0.00000  Uiso   1.00
Ni1982 Ni    0.74330   0.62165   0.68145   0.00000  Uiso   1.00
Ni1983 Ni    0.25670   0.37835   0.31855   0.00000  Uiso   1.00
Ni1984 Ni    0.37835   0.25670   0.31855   0.00000  Uiso   1.00
Ni1985 Ni    0.74330   0.37835   0.68145   0.00000  Uiso   1.00
Ni1986 Ni    0.37835   0.74330   0.68145   0.00000  Uiso   1.00
Ni1987 Ni    0.62165   0.25670   0.68145   0.00000  Uiso   1.00
Ni1988 Ni    0.25670   0.62165   0.68145   0.00000  Uiso   1.00
Ni1989 Ni    0.37835   0.25670   0.68145   0.00000  Uiso   1.00
Ni1990 Ni    0.25670   0.37835   0.68145   0.00000  Uiso   1.00
Ni1991 Ni    0.53041   0.68248   0.22783   0.00000  Uiso   1.00
Ni1992 Ni    0.68248   0.53041   0.22783   0.00000  Uiso   1.00
Ni1993 Ni    0.46959   0.68248   0.22783   0.00000  Uiso   1.00
Ni1994 Ni    0.68248   0.46959   0.22783   0.00000  Uiso   1.00
Ni1995 Ni    0.53041   0.31752   0.22783   0.00000  Uiso   1.00
Ni1996 Ni    0.31752   0.53041   0.22783   0.00000  Uiso   1.00
Ni1997 Ni    0.31752   0.46959   0.22783   0.00000  Uiso   1.00
Ni1998 Ni    0.46959   0.31752   0.22783   0.00000  Uiso   1.00
Ni1999 Ni    0.68248   0.53041   0.77217   0.00000  Uiso   1.00
Ni2000 Ni    0.53041   0.68248   0.77217   0.00000  Uiso   1.00
Ni2001 Ni    0.46959   0.68248   0.77217   0.00000  Uiso   1.00
Ni2002 Ni    0.68248   0.46959   0.77217   0.00000  Uiso   1.00
Ni2003 Ni    0.53041   0.31752   0.77217   0.00000  Uiso   1.00
Ni2004 Ni    0.31752   0.53041   0.77217   0.00000  Uiso   1.00
Ni2005 Ni    0.31752   0.46959   0.77217   0.00000  Uiso   1.00
Ni2006 Ni    0.46959   0.31752   0.77217   0.00000  Uiso   1.00
Ni2007 Ni    0.59124   0.80413   0.40928   0.00000  Uiso   1.00
Ni2008 Ni    0.80413   0.59124   0.40928   0.00000  Uiso   1.00
Ni2009 Ni    0.80413   0.59124   0.59072   0.00000  Uiso   1.00
Ni2010 Ni    0.59124   0.80413   0.59072   0.00000  Uiso   1.00
Ni2011 Ni    0.80413   0.40876   0.40928   0.00000  Uiso   1.00
Ni2012 Ni    0.40876   0.80413   0.40928   0.00000  Uiso   1.00
Ni2013 Ni    0.59124   0.19587   0.40928   0.00000  Uiso   1.00
Ni2014 Ni    0.19587   0.59124   0.40928   0.00000  Uiso   1.00
Ni2015 Ni    0.80413   0.40876   0.59072   0.00000  Uiso   1.00
Ni2016 Ni    0.40876   0.80413   0.59072   0.00000  Uiso   1.00
Ni2017 Ni    0.59124   0.19587   0.59072   0.00000  Uiso   1.00
Ni2018 Ni    0.19587   0.59124   0.59072   0.00000  Uiso   1.00
Ni2019 Ni    0.19587   0.40876   0.40928   0.00000  Uiso   1.00
Ni2020 Ni    0.40876   0.19587   0.40928   0.00000  Uiso   1.00
Ni2021 Ni    0.40876   0.19587   0.59072   0.00000  Uiso   1.00
Ni2022 Ni    0.19587   0.40876   0.59072   0.00000  Uiso   1.00
Ni2023 Ni    0.68248   0.77372   0.46976   0.00000  Uiso   1.00
Ni2024 Ni    0.77372   0.68248   0.46976   0.00000  Uiso   1.00
Ni2025 Ni    0.68248   0.77372   0.53024   0.00000  Uiso   1.00
Ni2026 Ni    0.77372   0.68248   0.53024   0.00000  Uiso   1.00
Ni2027 Ni    0.31752   0.77372   0.46976   0.00000  Uiso   1.00
Ni2028 Ni    0.77372   0.31752   0.46976   0.00000  Uiso   1.00
Ni2029 Ni    0.77372   0.31752   0.53024   0.00000  Uiso   1.00
Ni2030 Ni    0.31752   0.77372   0.53024   0.00000  Uiso   1.00
Ni2031 Ni    0.22628   0.68248   0.46976   0.00000  Uiso   1.00
Ni2032 Ni    0.68248   0.22628   0.46976   0.00000  Uiso   1.00
Ni2033 Ni    0.22628   0.68248   0.53024   0.00000  Uiso   1.00
Ni2034 Ni    0.68248   0.22628   0.53024   0.00000  Uiso   1.00
Ni2035 Ni    0.22628   0.31752   0.46976   0.00000  Uiso   1.00
Ni2036 Ni    0.31752   0.22628   0.46976   0.00000  Uiso   1.00
Ni2037 Ni    0.31752   0.22628   0.53024   0.00000  Uiso   1.00
Ni2038 Ni    0.22628   0.31752   0.53024   0.00000  Uiso   1.00
Ni2039 Ni    0.56083   0.62165   0.19758   0.00000  Uiso   1.00
Ni2040 Ni    0.62165   0.56083   0.19758   0.00000  Uiso   1.00
Ni2041 Ni    0.43917   0.62165   0.19758   0.00000  Uiso   1.00
Ni2042 Ni    0.62165   0.43917   0.19758   0.00000  Uiso   1.00
Ni2043 Ni    0.56083   0.37835   0.19758   0.00000  Uiso   1.00
Ni2044 Ni    0.37835   0.56083   0.19758   0.00000  Uiso   1.00
Ni2045 Ni    0.43917   0.37835   0.19758   0.00000  Uiso   1.00
Ni2046 Ni    0.37835   0.43917   0.19758   0.00000  Uiso   1.00
Ni2047 Ni    0.62165   0.56083   0.80242   0.00000  Uiso   1.00
Ni2048 Ni    0.56083   0.62165   0.80242   0.00000  Uiso   1.00
Ni2049 Ni    0.62165   0.43917   0.80242   0.00000  Uiso   1.00
Ni2050 Ni    0.43917   0.62165   0.80242   0.00000  Uiso   1.00
Ni2051 Ni    0.56083   0.37835   0.80242   0.00000  Uiso   1.00
Ni2052 Ni    0.37835   0.56083   0.80242   0.00000  Uiso   1.00
Ni2053 Ni    0.37835   0.43917   0.80242   0.00000  Uiso   1.00
Ni2054 Ni    0.43917   0.37835   0.80242   0.00000  Uiso   1.00
Ni2055 Ni    0.62165   0.80413   0.43952   0.00000  Uiso   1.00
Ni2056 Ni    0.80413   0.62165   0.43952   0.00000  Uiso   1.00
Ni2057 Ni    0.62165   0.80413   0.56048   0.00000  Uiso   1.00
Ni2058 Ni    0.80413   0.62165   0.56048   0.00000  Uiso   1.00
Ni2059 Ni    0.37835   0.80413   0.43952   0.00000  Uiso   1.00
Ni2060 Ni    0.80413   0.37835   0.43952   0.00000  Uiso   1.00
Ni2061 Ni    0.80413   0.37835   0.56048   0.00000  Uiso   1.00
Ni2062 Ni    0.37835   0.80413   0.56048   0.00000  Uiso   1.00
Ni2063 Ni    0.19587   0.62165   0.43952   0.00000  Uiso   1.00
Ni2064 Ni    0.62165   0.19587   0.43952   0.00000  Uiso   1.00
Ni2065 Ni    0.62165   0.19587   0.56048   0.00000  Uiso   1.00
Ni2066 Ni    0.19587   0.62165   0.56048   0.00000  Uiso   1.00
Ni2067 Ni    0.37835   0.19587   0.43952   0.00000  Uiso   1.00
Ni2068 Ni    0.19587   0.37835   0.43952   0.00000  Uiso   1.00
Ni2069 Ni    0.37835   0.19587   0.56048   0.00000  Uiso   1.00
Ni2070 Ni    0.19587   0.37835   0.56048   0.00000  Uiso   1.00
Pt2071 Pt    0.50000   0.50000   0.50000   0.00000  Uiso   1.00
Pt2072 Pt    0.50000   0.56083   0.50000   0.00000  Uiso   1.00
Pt2073 Pt    0.56083   0.50000   0.50000   0.00000  Uiso   1.00
Pt2074 Pt    0.43917   0.50000   0.50000   0.00000  Uiso   1.00
Pt2075 Pt    0.50000   0.43917   0.50000   0.00000  Uiso   1.00
Pt2076 Pt    0.53041   0.53041   0.56048   0.00000  Uiso   1.00
Pt2077 Pt    0.53041   0.53041   0.43952   0.00000  Uiso   1.00
Pt2078 Pt    0.53041   0.46959   0.56048   0.00000  Uiso   1.00
Pt2079 Pt    0.46959   0.53041   0.56048   0.00000  Uiso   1.00
Pt2080 Pt    0.53041   0.46959   0.43952   0.00000  Uiso   1.00
Pt2081 Pt    0.46959   0.53041   0.43952   0.00000  Uiso   1.00
Pt2082 Pt    0.46959   0.46959   0.56048   0.00000  Uiso   1.00
Pt2083 Pt    0.46959   0.46959   0.43952   0.00000  Uiso   1.00
Pt2084 Pt    0.56083   0.56083   0.50000   0.00000  Uiso   1.00
Pt2085 Pt    0.56083   0.43917   0.50000   0.00000  Uiso   1.00
Pt2086 Pt    0.43917   0.56083   0.50000   0.00000  Uiso   1.00
Pt2087 Pt    0.43917   0.43917   0.50000   0.00000  Uiso   1.00
Pt2088 Pt    0.53041   0.59124   0.56048   0.00000  Uiso   1.00
Pt2089 Pt    0.59124   0.53041   0.56048   0.00000  Uiso   1.00
Pt2090 Pt    0.53041   0.59124   0.43952   0.00000  Uiso   1.00
Pt2091 Pt    0.59124   0.53041   0.43952   0.00000  Uiso   1.00
Pt2092 Pt    0.59124   0.46959   0.56048   0.00000  Uiso   1.00
Pt2093 Pt    0.46959   0.59124   0.56048   0.00000  Uiso   1.00
Pt2094 Pt    0.59124   0.46959   0.43952   0.00000  Uiso   1.00
Pt2095 Pt    0.46959   0.59124   0.43952   0.00000  Uiso   1.00
Pt2096 Pt    0.40876   0.53041   0.56048   0.00000  Uiso   1.00
Pt2097 Pt    0.53041   0.40876   0.56048   0.00000  Uiso   1.00
Pt2098 Pt    0.40876   0.53041   0.43952   0.00000  Uiso   1.00
Pt2099 Pt    0.53041   0.40876   0.43952   0.00000  Uiso   1.00
Pt2100 Pt    0.40876   0.46959   0.56048   0.00000  Uiso   1.00
Pt2101 Pt    0.46959   0.40876   0.56048   0.00000  Uiso   1.00
Pt2102 Pt    0.40876   0.46959   0.43952   0.00000  Uiso   1.00
Pt2103 Pt    0.46959   0.40876   0.43952   0.00000  Uiso   1.00
Pt2104 Pt    0.50000   0.50000   0.37903   0.00000  Uiso   1.00
Pt2105 Pt    0.50000   0.50000   0.62097   0.00000  Uiso   1.00
Pt2106 Pt    0.50000   0.62165   0.50000   0.00000  Uiso   1.00
Pt2107 Pt    0.62165   0.50000   0.50000   0.00000  Uiso   1.00
Pt2108 Pt    0.37835   0.50000   0.50000   0.00000  Uiso   1.00
Pt2109 Pt    0.50000   0.37835   0.50000   0.00000  Uiso   1.00
Pt2110 Pt    0.50000   0.56083   0.37903   0.00000  Uiso   1.00
Pt2111 Pt    0.56083   0.50000   0.37903   0.00000  Uiso   1.00
Pt2112 Pt    0.43917   0.50000   0.37903   0.00000  Uiso   1.00
Pt2113 Pt    0.50000   0.43917   0.37903   0.00000  Uiso   1.00
Pt2114 Pt    0.50000   0.56083   0.62097   0.00000  Uiso   1.00
Pt2115 Pt    0.56083   0.50000   0.62097   0.00000  Uiso   1.00
Pt2116 Pt    0.43917   0.50000   0.62097   0.00000  Uiso   1.00
Pt2117 Pt    0.50000   0.43917   0.62097   0.00000  Uiso   1.00
Pt2118 Pt    0.56083   0.62165   0.50000   0.00000  Uiso   1.00
Pt2119 Pt    0.62165   0.56083   0.50000   0.00000  Uiso   1.00
Pt2120 Pt    0.62165   0.43917   0.50000   0.00000  Uiso   1.00
Pt2121 Pt    0.43917   0.62165   0.50000   0.00000  Uiso   1.00
Pt2122 Pt    0.56083   0.37835   0.50000   0.00000  Uiso   1.00
Pt2123 Pt    0.37835   0.43917   0.50000   0.00000  Uiso   1.00
Pt2124 Pt    0.43917   0.37835   0.50000   0.00000  Uiso   1.00
Pt2125 Pt    0.37835   0.56083   0.50000   0.00000  Uiso   1.00
Pt2126 Pt    0.59124   0.59124   0.56048   0.00000  Uiso   1.00
Pt2127 Pt    0.59124   0.59124   0.43952   0.00000  Uiso   1.00
Pt2128 Pt    0.59124   0.40876   0.56048   0.00000  Uiso   1.00
Pt2129 Pt    0.40876   0.59124   0.56048   0.00000  Uiso   1.00
Pt2130 Pt    0.59124   0.40876   0.43952   0.00000  Uiso   1.00
Pt2131 Pt    0.40876   0.59124   0.43952   0.00000  Uiso   1.00
Pt2132 Pt    0.40876   0.40876   0.56048   0.00000  Uiso   1.00
Pt2133 Pt    0.40876   0.40876   0.43952   0.00000  Uiso   1.00
Pt2134 Pt    0.56083   0.56083   0.37903   0.00000  Uiso   1.00
Pt2135 Pt    0.43917   0.43917   0.37903   0.00000  Uiso   1.00
Pt2136 Pt    0.56083   0.56083   0.62097   0.00000  Uiso   1.00
Pt2137 Pt    0.56083   0.43917   0.37903   0.00000  Uiso   1.00
Pt2138 Pt    0.43917   0.56083   0.37903   0.00000  Uiso   1.00
Pt2139 Pt    0.56083   0.43917   0.62097   0.00000  Uiso   1.00
Pt2140 Pt    0.43917   0.56083   0.62097   0.00000  Uiso   1.00
Pt2141 Pt    0.43917   0.43917   0.62097   0.00000  Uiso   1.00
Pt2142 Pt    0.53041   0.65207   0.56048   0.00000  Uiso   1.00
Pt2143 Pt    0.65207   0.53041   0.56048   0.00000  Uiso   1.00
Pt2144 Pt    0.53041   0.65207   0.43952   0.00000  Uiso   1.00
Pt2145 Pt    0.65207   0.53041   0.43952   0.00000  Uiso   1.00
Pt2146 Pt    0.65207   0.46959   0.56048   0.00000  Uiso   1.00
Pt2147 Pt    0.46959   0.65207   0.56048   0.00000  Uiso   1.00
Pt2148 Pt    0.46959   0.65207   0.43952   0.00000  Uiso   1.00
Pt2149 Pt    0.65207   0.46959   0.43952   0.00000  Uiso   1.00
Pt2150 Pt    0.53041   0.34793   0.56048   0.00000  Uiso   1.00
Pt2151 Pt    0.34793   0.53041   0.56048   0.00000  Uiso   1.00
Pt2152 Pt    0.53041   0.34793   0.43952   0.00000  Uiso   1.00
Pt2153 Pt    0.34793   0.53041   0.43952   0.00000  Uiso   1.00
Pt2154 Pt    0.34793   0.46959   0.56048   0.00000  Uiso   1.00
Pt2155 Pt    0.46959   0.34793   0.56048   0.00000  Uiso   1.00
Pt2156 Pt    0.46959   0.34793   0.43952   0.00000  Uiso   1.00
Pt2157 Pt    0.34793   0.46959   0.43952   0.00000  Uiso   1.00
Pt2158 Pt    0.62165   0.50000   0.37903   0.00000  Uiso   1.00
Pt2159 Pt    0.50000   0.62165   0.37903   0.00000  Uiso   1.00
Pt2160 Pt    0.37835   0.50000   0.37903   0.00000  Uiso   1.00
Pt2161 Pt    0.50000   0.62165   0.62097   0.00000  Uiso   1.00
Pt2162 Pt    0.50000   0.37835   0.37903   0.00000  Uiso   1.00
Pt2163 Pt    0.62165   0.50000   0.62097   0.00000  Uiso   1.00
Pt2164 Pt    0.37835   0.50000   0.62097   0.00000  Uiso   1.00
Pt2165 Pt    0.50000   0.37835   0.62097   0.00000  Uiso   1.00
Pt2166 Pt    0.62165   0.62165   0.50000   0.00000  Uiso   1.00
Pt2167 Pt    0.62165   0.37835   0.50000   0.00000  Uiso   1.00
Pt2168 Pt    0.37835   0.62165   0.50000   0.00000  Uiso   1.00
Pt2169 Pt    0.37835   0.37835   0.50000   0.00000  Uiso   1.00
Pt2170 Pt    0.56083   0.62165   0.37903   0.00000  Uiso   1.00
Pt2171 Pt    0.62165   0.56083   0.37903   0.00000  Uiso   1.00
Pt2172 Pt    0.56083   0.62165   0.62097   0.00000  Uiso   1.00
Pt2173 Pt    0.62165   0.56083   0.62097   0.00000  Uiso   1.00
Pt2174 Pt    0.62165   0.43917   0.37903   0.00000  Uiso   1.00
Pt2175 Pt    0.43917   0.62165   0.37903   0.00000  Uiso   1.00
Pt2176 Pt    0.62165   0.43917   0.62097   0.00000  Uiso   1.00
Pt2177 Pt    0.37835   0.43917   0.37903   0.00000  Uiso   1.00
Pt2178 Pt    0.43917   0.62165   0.62097   0.00000  Uiso   1.00
Pt2179 Pt    0.43917   0.37835   0.37903   0.00000  Uiso   1.00
Pt2180 Pt    0.56083   0.37835   0.37903   0.00000  Uiso   1.00
Pt2181 Pt    0.37835   0.56083   0.37903   0.00000  Uiso   1.00
Pt2182 Pt    0.56083   0.37835   0.62097   0.00000  Uiso   1.00
Pt2183 Pt    0.37835   0.43917   0.62097   0.00000  Uiso   1.00
Pt2184 Pt    0.43917   0.37835   0.62097   0.00000  Uiso   1.00
Pt2185 Pt    0.37835   0.56083   0.62097   0.00000  Uiso   1.00
Pt2186 Pt    0.50000   0.68248   0.50000   0.00000  Uiso   1.00
Pt2187 Pt    0.68248   0.50000   0.50000   0.00000  Uiso   1.00
Pt2188 Pt    0.31752   0.50000   0.50000   0.00000  Uiso   1.00
Pt2189 Pt    0.50000   0.31752   0.50000   0.00000  Uiso   1.00
Pt2190 Pt    0.53041   0.53041   0.68145   0.00000  Uiso   1.00
Pt2191 Pt    0.53041   0.53041   0.31855   0.00000  Uiso   1.00
Pt2192 Pt    0.53041   0.46959   0.68145   0.00000  Uiso   1.00
Pt2193 Pt    0.46959   0.53041   0.68145   0.00000  Uiso   1.00
Pt2194 Pt    0.46959   0.53041   0.31855   0.00000  Uiso   1.00
Pt2195 Pt    0.53041   0.46959   0.31855   0.00000  Uiso   1.00
Pt2196 Pt    0.46959   0.46959   0.68145   0.00000  Uiso   1.00
Pt2197 Pt    0.46959   0.46959   0.31855   0.00000  Uiso   1.00
Pt2198 Pt    0.59124   0.65207   0.56048   0.00000  Uiso   1.00
Pt2199 Pt    0.65207   0.59124   0.56048   0.00000  Uiso   1.00
Pt2200 Pt    0.59124   0.65207   0.43952   0.00000  Uiso   1.00
Pt2201 Pt    0.65207   0.59124   0.43952   0.00000  Uiso   1.00
Pt2202 Pt    0.65207   0.40876   0.56048   0.00000  Uiso   1.00
Pt2203 Pt    0.40876   0.65207   0.56048   0.00000  Uiso   1.00
Pt2204 Pt    0.65207   0.40876   0.43952   0.00000  Uiso   1.00
Pt2205 Pt    0.40876   0.65207   0.43952   0.00000  Uiso   1.00
Pt2206 Pt    0.59124   0.34793   0.56048   0.00000  Uiso   1.00
Pt2207 Pt    0.34793   0.59124   0.56048   0.00000  Uiso   1.00
Pt2208 Pt    0.59124   0.34793   0.43952   0.00000  Uiso   1.00
Pt2209 Pt    0.34793   0.59124   0.43952   0.00000  Uiso   1.00
Pt2210 Pt    0.40876   0.34793   0.56048   0.00000  Uiso   1.00
Pt2211 Pt    0.34793   0.40876   0.56048   0.00000  Uiso   1.00
Pt2212 Pt    0.40876   0.34793   0.43952   0.00000  Uiso   1.00
Pt2213 Pt    0.34793   0.40876   0.43952   0.00000  Uiso   1.00
Pt2214 Pt    0.56083   0.68248   0.50000   0.00000  Uiso   1.00
Pt2215 Pt    0.68248   0.56083   0.50000   0.00000  Uiso   1.00
Pt2216 Pt    0.68248   0.43917   0.50000   0.00000  Uiso   1.00
Pt2217 Pt    0.43917   0.68248   0.50000   0.00000  Uiso   1.00
Pt2218 Pt    0.31752   0.56083   0.50000   0.00000  Uiso   1.00
Pt2219 Pt    0.56083   0.31752   0.50000   0.00000  Uiso   1.00
Pt2220 Pt    0.31752   0.43917   0.50000   0.00000  Uiso   1.00
Pt2221 Pt    0.43917   0.31752   0.50000   0.00000  Uiso   1.00
Pt2222 Pt    0.53041   0.59124   0.68145   0.00000  Uiso   1.00
Pt2223 Pt    0.59124   0.53041   0.68145   0.00000  Uiso   1.00
Pt2224 Pt    0.53041   0.59124   0.31855   0.00000  Uiso   1.00
Pt2225 Pt    0.59124   0.53041   0.31855   0.00000  Uiso   1.00
Pt2226 Pt    0.46959   0.59124   0.68145   0.00000  Uiso   1.00
Pt2227 Pt    0.59124   0.46959   0.68145   0.00000  Uiso   1.00
Pt2228 Pt    0.59124   0.46959   0.31855   0.00000  Uiso   1.00
Pt2229 Pt    0.46959   0.59124   0.31855   0.00000  Uiso   1.00
Pt2230 Pt    0.53041   0.40876   0.68145   0.00000  Uiso   1.00
Pt2231 Pt    0.40876   0.53041   0.68145   0.00000  Uiso   1.00
Pt2232 Pt    0.53041   0.40876   0.31855   0.00000  Uiso   1.00
Pt2233 Pt    0.40876   0.53041   0.31855   0.00000  Uiso   1.00
Pt2234 Pt    0.40876   0.46959   0.68145   0.00000  Uiso   1.00
Pt2235 Pt    0.46959   0.40876   0.68145   0.00000  Uiso   1.00
Pt2236 Pt    0.40876   0.46959   0.31855   0.00000  Uiso   1.00
Pt2237 Pt    0.46959   0.40876   0.31855   0.00000  Uiso   1.00
Pt2238 Pt    0.62165   0.62165   0.37903   0.00000  Uiso   1.00
Pt2239 Pt    0.62165   0.62165   0.62097   0.00000  Uiso   1.00
Pt2240 Pt    0.62165   0.37835   0.37903   0.00000  Uiso   1.00
Pt2241 Pt    0.37835   0.37835   0.37903   0.00000  Uiso   1.00
Pt2242 Pt    0.37835   0.62165   0.37903   0.00000  Uiso   1.00
Pt2243 Pt    0.62165   0.37835   0.62097   0.00000  Uiso   1.00
Pt2244 Pt    0.37835   0.62165   0.62097   0.00000  Uiso   1.00
Pt2245 Pt    0.37835   0.37835   0.62097   0.00000  Uiso   1.00
Pt2246 Pt    0.68248   0.50000   0.37903   0.00000  Uiso   1.00
Pt2247 Pt    0.50000   0.68248   0.37903   0.00000  Uiso   1.00
Pt2248 Pt    0.50000   0.68248   0.62097   0.00000  Uiso   1.00
Pt2249 Pt    0.68248   0.50000   0.62097   0.00000  Uiso   1.00
Pt2250 Pt    0.31752   0.50000   0.37903   0.00000  Uiso   1.00
Pt2251 Pt    0.50000   0.31752   0.37903   0.00000  Uiso   1.00
Pt2252 Pt    0.31752   0.50000   0.62097   0.00000  Uiso   1.00
Pt2253 Pt    0.50000   0.31752   0.62097   0.00000  Uiso   1.00
Pt2254 Pt    0.62165   0.68248   0.50000   0.00000  Uiso   1.00
Pt2255 Pt    0.68248   0.62165   0.50000   0.00000  Uiso   1.00
Pt2256 Pt    0.68248   0.37835   0.50000   0.00000  Uiso   1.00
Pt2257 Pt    0.37835   0.68248   0.50000   0.00000  Uiso   1.00
Pt2258 Pt    0.62165   0.31752   0.50000   0.00000  Uiso   1.00
Pt2259 Pt    0.31752   0.62165   0.50000   0.00000  Uiso   1.00
Pt2260 Pt    0.37835   0.31752   0.50000   0.00000  Uiso   1.00
Pt2261 Pt    0.31752   0.37835   0.50000   0.00000  Uiso   1.00
Pt2262 Pt    0.59124   0.59124   0.68145   0.00000  Uiso   1.00
Pt2263 Pt    0.59124   0.59124   0.31855   0.00000  Uiso   1.00
Pt2264 Pt    0.59124   0.40876   0.68145   0.00000  Uiso   1.00
Pt2265 Pt    0.40876   0.59124   0.68145   0.00000  Uiso   1.00
Pt2266 Pt    0.59124   0.40876   0.31855   0.00000  Uiso   1.00
Pt2267 Pt    0.40876   0.59124   0.31855   0.00000  Uiso   1.00
Pt2268 Pt    0.40876   0.40876   0.68145   0.00000  Uiso   1.00
Pt2269 Pt    0.40876   0.40876   0.31855   0.00000  Uiso   1.00
Pt2270 Pt    0.65207   0.65207   0.56048   0.00000  Uiso   1.00
Pt2271 Pt    0.65207   0.65207   0.43952   0.00000  Uiso   1.00
Pt2272 Pt    0.71289   0.53041   0.56048   0.00000  Uiso   1.00
Pt2273 Pt    0.53041   0.71289   0.56048   0.00000  Uiso   1.00
Pt2274 Pt    0.71289   0.53041   0.43952   0.00000  Uiso   1.00
Pt2275 Pt    0.53041   0.71289   0.43952   0.00000  Uiso   1.00
Pt2276 Pt    0.46959   0.71289   0.56048   0.00000  Uiso   1.00
Pt2277 Pt    0.71289   0.46959   0.56048   0.00000  Uiso   1.00
Pt2278 Pt    0.46959   0.71289   0.43952   0.00000  Uiso   1.00
Pt2279 Pt    0.71289   0.46959   0.43952   0.00000  Uiso   1.00
Pt2280 Pt    0.65207   0.34793   0.56048   0.00000  Uiso   1.00
Pt2281 Pt    0.34793   0.65207   0.56048   0.00000  Uiso   1.00
Pt2282 Pt    0.65207   0.34793   0.43952   0.00000  Uiso   1.00
Pt2283 Pt    0.34793   0.65207   0.43952   0.00000  Uiso   1.00
Pt2284 Pt    0.28711   0.53041   0.56048   0.00000  Uiso   1.00
Pt2285 Pt    0.53041   0.28711   0.56048   0.00000  Uiso   1.00
Pt2286 Pt    0.28711   0.53041   0.43952   0.00000  Uiso   1.00
Pt2287 Pt    0.53041   0.28711   0.43952   0.00000  Uiso   1.00
Pt2288 Pt    0.28711   0.46959   0.56048   0.00000  Uiso   1.00
Pt2289 Pt    0.46959   0.28711   0.56048   0.00000  Uiso   1.00
Pt2290 Pt    0.28711   0.46959   0.43952   0.00000  Uiso   1.00
Pt2291 Pt    0.46959   0.28711   0.43952   0.00000  Uiso   1.00
Pt2292 Pt    0.34793   0.34793   0.56048   0.00000  Uiso   1.00
Pt2293 Pt    0.34793   0.34793   0.43952   0.00000  Uiso   1.00
Pt2294 Pt    0.56083   0.68248   0.37903   0.00000  Uiso   1.00
Pt2295 Pt    0.68248   0.56083   0.37903   0.00000  Uiso   1.00
Pt2296 Pt    0.68248   0.43917   0.37903   0.00000  Uiso   1.00
Pt2297 Pt    0.56083   0.68248   0.62097   0.00000  Uiso   1.00
Pt2298 Pt    0.43917   0.68248   0.37903   0.00000  Uiso   1.00
Pt2299 Pt    0.68248   0.56083   0.62097   0.00000  Uiso   1.00
Pt2300 Pt    0.68248   0.43917   0.62097   0.00000  Uiso   1.00
Pt2301 Pt    0.43917   0.68248   0.62097   0.00000  Uiso   1.00
Pt2302 Pt    0.31752   0.56083   0.37903   0.00000  Uiso   1.00
Pt2303 Pt    0.56083   0.31752   0.37903   0.00000  Uiso   1.00
Pt2304 Pt    0.43917   0.31752   0.37903   0.00000  Uiso   1.00
Pt2305 Pt    0.31752   0.43917   0.37903   0.00000  Uiso   1.00
Pt2306 Pt    0.56083   0.31752   0.62097   0.00000  Uiso   1.00
Pt2307 Pt    0.31752   0.56083   0.62097   0.00000  Uiso   1.00
Pt2308 Pt    0.31752   0.43917   0.62097   0.00000  Uiso   1.00
Pt2309 Pt    0.43917   0.31752   0.62097   0.00000  Uiso   1.00
Pt2310 Pt    0.53041   0.65207   0.68145   0.00000  Uiso   1.00
Pt2311 Pt    0.65207   0.53041   0.68145   0.00000  Uiso   1.00
Pt2312 Pt    0.53041   0.65207   0.31855   0.00000  Uiso   1.00
Pt2313 Pt    0.65207   0.53041   0.31855   0.00000  Uiso   1.00
Pt2314 Pt    0.46959   0.65207   0.68145   0.00000  Uiso   1.00
Pt2315 Pt    0.65207   0.46959   0.68145   0.00000  Uiso   1.00
Pt2316 Pt    0.65207   0.46959   0.31855   0.00000  Uiso   1.00
Pt2317 Pt    0.46959   0.65207   0.31855   0.00000  Uiso   1.00
Pt2318 Pt    0.53041   0.34793   0.68145   0.00000  Uiso   1.00
Pt2319 Pt    0.34793   0.53041   0.68145   0.00000  Uiso   1.00
Pt2320 Pt    0.53041   0.34793   0.31855   0.00000  Uiso   1.00
Pt2321 Pt    0.34793   0.53041   0.31855   0.00000  Uiso   1.00
Pt2322 Pt    0.46959   0.34793   0.68145   0.00000  Uiso   1.00
Pt2323 Pt    0.34793   0.46959   0.68145   0.00000  Uiso   1.00
Pt2324 Pt    0.46959   0.34793   0.31855   0.00000  Uiso   1.00
Pt2325 Pt    0.34793   0.46959   0.31855   0.00000  Uiso   1.00
Pt2326 Pt    0.59124   0.71289   0.56048   0.00000  Uiso   1.00
Pt2327 Pt    0.71289   0.59124   0.56048   0.00000  Uiso   1.00
Pt2328 Pt    0.59124   0.71289   0.43952   0.00000  Uiso   1.00
Pt2329 Pt    0.71289   0.59124   0.43952   0.00000  Uiso   1.00
Pt2330 Pt    0.71289   0.40876   0.56048   0.00000  Uiso   1.00
Pt2331 Pt    0.40876   0.71289   0.56048   0.00000  Uiso   1.00
Pt2332 Pt    0.71289   0.40876   0.43952   0.00000  Uiso   1.00
Pt2333 Pt    0.40876   0.71289   0.43952   0.00000  Uiso   1.00
Pt2334 Pt    0.28711   0.59124   0.56048   0.00000  Uiso   1.00
Pt2335 Pt    0.59124   0.28711   0.56048   0.00000  Uiso   1.00
Pt2336 Pt    0.28711   0.59124   0.43952   0.00000  Uiso   1.00
Pt2337 Pt    0.59124   0.28711   0.43952   0.00000  Uiso   1.00
Pt2338 Pt    0.40876   0.28711   0.56048   0.00000  Uiso   1.00
Pt2339 Pt    0.28711   0.40876   0.56048   0.00000  Uiso   1.00
Pt2340 Pt    0.40876   0.28711   0.43952   0.00000  Uiso   1.00
Pt2341 Pt    0.28711   0.40876   0.43952   0.00000  Uiso   1.00
Pt2342 Pt    0.50000   0.50000   0.74193   0.00000  Uiso   1.00
Pt2343 Pt    0.50000   0.50000   0.25807   0.00000  Uiso   1.00
Pt2344 Pt    0.50000   0.74330   0.50000   0.00000  Uiso   1.00
Pt2345 Pt    0.74330   0.50000   0.50000   0.00000  Uiso   1.00
Pt2346 Pt    0.50000   0.25670   0.50000   0.00000  Uiso   1.00
Pt2347 Pt    0.25670   0.50000   0.50000   0.00000  Uiso   1.00
Pt2348 Pt    0.56083   0.50000   0.25807   0.00000  Uiso   1.00
Pt2349 Pt    0.50000   0.56083   0.25807   0.00000  Uiso   1.00
Pt2350 Pt    0.43917   0.50000   0.74193   0.00000  Uiso   1.00
Pt2351 Pt    0.50000   0.56083   0.74193   0.00000  Uiso   1.00
Pt2352 Pt    0.56083   0.50000   0.74193   0.00000  Uiso   1.00
Pt2353 Pt    0.43917   0.50000   0.25807   0.00000  Uiso   1.00
Pt2354 Pt    0.50000   0.43917   0.25807   0.00000  Uiso   1.00
Pt2355 Pt    0.50000   0.43917   0.74193   0.00000  Uiso   1.00
Pt2356 Pt    0.62165   0.68248   0.37903   0.00000  Uiso   1.00
Pt2357 Pt    0.68248   0.62165   0.37903   0.00000  Uiso   1.00
Pt2358 Pt    0.62165   0.68248   0.62097   0.00000  Uiso   1.00
Pt2359 Pt    0.68248   0.62165   0.62097   0.00000  Uiso   1.00
Pt2360 Pt    0.68248   0.37835   0.37903   0.00000  Uiso   1.00
Pt2361 Pt    0.68248   0.37835   0.62097   0.00000  Uiso   1.00
Pt2362 Pt    0.37835   0.68248   0.37903   0.00000  Uiso   1.00
Pt2363 Pt    0.31752   0.62165   0.37903   0.00000  Uiso   1.00
Pt2364 Pt    0.62165   0.31752   0.37903   0.00000  Uiso   1.00
Pt2365 Pt    0.37835   0.68248   0.62097   0.00000  Uiso   1.00
Pt2366 Pt    0.62165   0.31752   0.62097   0.00000  Uiso   1.00
Pt2367 Pt    0.31752   0.62165   0.62097   0.00000  Uiso   1.00
Pt2368 Pt    0.37835   0.31752   0.37903   0.00000  Uiso   1.00
Pt2369 Pt    0.31752   0.37835   0.37903   0.00000  Uiso   1.00
Pt2370 Pt    0.37835   0.31752   0.62097   0.00000  Uiso   1.00
Pt2371 Pt    0.31752   0.37835   0.62097   0.00000  Uiso   1.00
Pt2372 Pt    0.56083   0.74330   0.50000   0.00000  Uiso   1.00
Pt2373 Pt    0.74330   0.56083   0.50000   0.00000  Uiso   1.00
Pt2374 Pt    0.74330   0.43917   0.50000   0.00000  Uiso   1.00
Pt2375 Pt    0.43917   0.74330   0.50000   0.00000  Uiso   1.00
Pt2376 Pt    0.56083   0.25670   0.50000   0.00000  Uiso   1.00
Pt2377 Pt    0.43917   0.25670   0.50000   0.00000  Uiso   1.00
Pt2378 Pt    0.25670   0.56083   0.50000   0.00000  Uiso   1.00
Pt2379 Pt    0.25670   0.43917   0.50000   0.00000  Uiso   1.00
Pt2380 Pt    0.59124   0.65207   0.68145   0.00000  Uiso   1.00
Pt2381 Pt    0.65207   0.59124   0.68145   0.00000  Uiso   1.00
Pt2382 Pt    0.59124   0.65207   0.31855   0.00000  Uiso   1.00
Pt2383 Pt    0.65207   0.59124   0.31855   0.00000  Uiso   1.00
Pt2384 Pt    0.65207   0.40876   0.68145   0.00000  Uiso   1.00
Pt2385 Pt    0.40876   0.65207   0.68145   0.00000  Uiso   1.00
Pt2386 Pt    0.65207   0.40876   0.31855   0.00000  Uiso   1.00
Pt2387 Pt    0.40876   0.65207   0.31855   0.00000  Uiso   1.00
Pt2388 Pt    0.59124   0.34793   0.68145   0.00000  Uiso   1.00
Pt2389 Pt    0.34793   0.59124   0.68145   0.00000  Uiso   1.00
Pt2390 Pt    0.59124   0.34793   0.31855   0.00000  Uiso   1.00
Pt2391 Pt    0.34793   0.59124   0.31855   0.00000  Uiso   1.00
Pt2392 Pt    0.40876   0.34793   0.68145   0.00000  Uiso   1.00
Pt2393 Pt    0.34793   0.40876   0.68145   0.00000  Uiso   1.00
Pt2394 Pt    0.40876   0.34793   0.31855   0.00000  Uiso   1.00
Pt2395 Pt    0.34793   0.40876   0.31855   0.00000  Uiso   1.00
Pt2396 Pt    0.56083   0.56083   0.74193   0.00000  Uiso   1.00
Pt2397 Pt    0.56083   0.56083   0.25807   0.00000  Uiso   1.00
Pt2398 Pt    0.56083   0.43917   0.74193   0.00000  Uiso   1.00
Pt2399 Pt    0.56083   0.43917   0.25807   0.00000  Uiso   1.00
Pt2400 Pt    0.43917   0.43917   0.74193   0.00000  Uiso   1.00
Pt2401 Pt    0.43917   0.56083   0.74193   0.00000  Uiso   1.00
Pt2402 Pt    0.43917   0.43917   0.25807   0.00000  Uiso   1.00
Pt2403 Pt    0.43917   0.56083   0.25807   0.00000  Uiso   1.00
Pt2404 Pt    0.68248   0.68248   0.50000   0.00000  Uiso   1.00
Pt2405 Pt    0.31752   0.68248   0.50000   0.00000  Uiso   1.00
Pt2406 Pt    0.68248   0.31752   0.50000   0.00000  Uiso   1.00
Pt2407 Pt    0.31752   0.31752   0.50000   0.00000  Uiso   1.00
Pt2408 Pt    0.71289   0.65207   0.56048   0.00000  Uiso   1.00
Pt2409 Pt    0.65207   0.71289   0.56048   0.00000  Uiso   1.00
Pt2410 Pt    0.71289   0.65207   0.43952   0.00000  Uiso   1.00
Pt2411 Pt    0.65207   0.71289   0.43952   0.00000  Uiso   1.00
Pt2412 Pt    0.71289   0.34793   0.56048   0.00000  Uiso   1.00
Pt2413 Pt    0.34793   0.71289   0.56048   0.00000  Uiso   1.00
Pt2414 Pt    0.71289   0.34793   0.43952   0.00000  Uiso   1.00
Pt2415 Pt    0.34793   0.71289   0.43952   0.00000  Uiso   1.00
Pt2416 Pt    0.28711   0.65207   0.56048   0.00000  Uiso   1.00
Pt2417 Pt    0.65207   0.28711   0.56048   0.00000  Uiso   1.00
Pt2418 Pt    0.65207   0.28711   0.43952   0.00000  Uiso   1.00
Pt2419 Pt    0.28711   0.65207   0.43952   0.00000  Uiso   1.00
Pt2420 Pt    0.34793   0.28711   0.56048   0.00000  Uiso   1.00
Pt2421 Pt    0.28711   0.34793   0.56048   0.00000  Uiso   1.00
Pt2422 Pt    0.28711   0.34793   0.43952   0.00000  Uiso   1.00
Pt2423 Pt    0.34793   0.28711   0.43952   0.00000  Uiso   1.00
Pt2424 Pt    0.50000   0.62165   0.25807   0.00000  Uiso   1.00
Pt2425 Pt    0.50000   0.62165   0.74193   0.00000  Uiso   1.00
Pt2426 Pt    0.62165   0.50000   0.74193   0.00000  Uiso   1.00
Pt2427 Pt    0.62165   0.50000   0.25807   0.00000  Uiso   1.00
Pt2428 Pt    0.50000   0.37835   0.74193   0.00000  Uiso   1.00
Pt2429 Pt    0.37835   0.50000   0.74193   0.00000  Uiso   1.00
Pt2430 Pt    0.50000   0.37835   0.25807   0.00000  Uiso   1.00
Pt2431 Pt    0.37835   0.50000   0.25807   0.00000  Uiso   1.00
Pt2432 Pt    0.74330   0.50000   0.37903   0.00000  Uiso   1.00
Pt2433 Pt    0.50000   0.74330   0.37903   0.00000  Uiso   1.00
Pt2434 Pt    0.74330   0.50000   0.62097   0.00000  Uiso   1.00
Pt2435 Pt    0.50000   0.74330   0.62097   0.00000  Uiso   1.00
Pt2436 Pt    0.50000   0.25670   0.37903   0.00000  Uiso   1.00
Pt2437 Pt    0.50000   0.25670   0.62097   0.00000  Uiso   1.00
Pt2438 Pt    0.25670   0.50000   0.37903   0.00000  Uiso   1.00
Pt2439 Pt    0.25670   0.50000   0.62097   0.00000  Uiso   1.00
Pt2440 Pt    0.62165   0.74330   0.50000   0.00000  Uiso   1.00
Pt2441 Pt    0.74330   0.62165   0.50000   0.00000  Uiso   1.00
Pt2442 Pt    0.62165   0.25670   0.50000   0.00000  Uiso   1.00
Pt2443 Pt    0.74330   0.37835   0.50000   0.00000  Uiso   1.00
Pt2444 Pt    0.37835   0.74330   0.50000   0.00000  Uiso   1.00
Pt2445 Pt    0.37835   0.25670   0.50000   0.00000  Uiso   1.00
Pt2446 Pt    0.25670   0.62165   0.50000   0.00000  Uiso   1.00
Pt2447 Pt    0.25670   0.37835   0.50000   0.00000  Uiso   1.00
Pt2448 Pt    0.56083   0.62165   0.74193   0.00000  Uiso   1.00
Pt2449 Pt    0.56083   0.62165   0.25807   0.00000  Uiso   1.00
Pt2450 Pt    0.62165   0.43917   0.74193   0.00000  Uiso   1.00
Pt2451 Pt    0.62165   0.43917   0.25807   0.00000  Uiso   1.00
Pt2452 Pt    0.62165   0.56083   0.25807   0.00000  Uiso   1.00
Pt2453 Pt    0.62165   0.56083   0.74193   0.00000  Uiso   1.00
Pt2454 Pt    0.43917   0.62165   0.25807   0.00000  Uiso   1.00
Pt2455 Pt    0.43917   0.62165   0.74193   0.00000  Uiso   1.00
Pt2456 Pt    0.43917   0.37835   0.25807   0.00000  Uiso   1.00
Pt2457 Pt    0.56083   0.37835   0.74193   0.00000  Uiso   1.00
Pt2458 Pt    0.37835   0.43917   0.74193   0.00000  Uiso   1.00
Pt2459 Pt    0.56083   0.37835   0.25807   0.00000  Uiso   1.00
Pt2460 Pt    0.37835   0.43917   0.25807   0.00000  Uiso   1.00
Pt2461 Pt    0.43917   0.37835   0.74193   0.00000  Uiso   1.00
Pt2462 Pt    0.37835   0.56083   0.74193   0.00000  Uiso   1.00
Pt2463 Pt    0.37835   0.56083   0.25807   0.00000  Uiso   1.00
Pt2464 Pt    0.56083   0.74330   0.37903   0.00000  Uiso   1.00
Pt2465 Pt    0.74330   0.56083   0.37903   0.00000  Uiso   1.00
Pt2466 Pt    0.56083   0.74330   0.62097   0.00000  Uiso   1.00
Pt2467 Pt    0.74330   0.43917   0.37903   0.00000  Uiso   1.00
Pt2468 Pt    0.74330   0.43917   0.62097   0.00000  Uiso   1.00
Pt2469 Pt    0.43917   0.74330   0.37903   0.00000  Uiso   1.00
Pt2470 Pt    0.56083   0.25670   0.37903   0.00000  Uiso   1.00
Pt2471 Pt    0.74330   0.56083   0.62097   0.00000  Uiso   1.00
Pt2472 Pt    0.43917   0.74330   0.62097   0.00000  Uiso   1.00
Pt2473 Pt    0.25670   0.56083   0.37903   0.00000  Uiso   1.00
Pt2474 Pt    0.56083   0.25670   0.62097   0.00000  Uiso   1.00
Pt2475 Pt    0.43917   0.25670   0.37903   0.00000  Uiso   1.00
Pt2476 Pt    0.25670   0.43917   0.37903   0.00000  Uiso   1.00
Pt2477 Pt    0.43917   0.25670   0.62097   0.00000  Uiso   1.00
Pt2478 Pt    0.25670   0.43917   0.62097   0.00000  Uiso   1.00
Pt2479 Pt    0.25670   0.56083   0.62097   0.00000  Uiso   1.00
Pt2480 Pt    0.65207   0.65207   0.68145   0.00000  Uiso   1.00
Pt2481 Pt    0.65207   0.65207   0.31855   0.00000  Uiso   1.00
Pt2482 Pt    0.53041   0.71289   0.68145   0.00000  Uiso   1.00
Pt2483 Pt    0.71289   0.53041   0.68145   0.00000  Uiso   1.00
Pt2484 Pt    0.53041   0.71289   0.31855   0.00000  Uiso   1.00
Pt2485 Pt    0.71289   0.53041   0.31855   0.00000  Uiso   1.00
Pt2486 Pt    0.71289   0.46959   0.68145   0.00000  Uiso   1.00
Pt2487 Pt    0.46959   0.71289   0.68145   0.00000  Uiso   1.00
Pt2488 Pt    0.46959   0.71289   0.31855   0.00000  Uiso   1.00
Pt2489 Pt    0.71289   0.46959   0.31855   0.00000  Uiso   1.00
Pt2490 Pt    0.65207   0.34793   0.68145   0.00000  Uiso   1.00
Pt2491 Pt    0.34793   0.65207   0.68145   0.00000  Uiso   1.00
Pt2492 Pt    0.65207   0.34793   0.31855   0.00000  Uiso   1.00
Pt2493 Pt    0.34793   0.65207   0.31855   0.00000  Uiso   1.00
Pt2494 Pt    0.53041   0.28711   0.68145   0.00000  Uiso   1.00
Pt2495 Pt    0.28711   0.53041   0.68145   0.00000  Uiso   1.00
Pt2496 Pt    0.53041   0.28711   0.31855   0.00000  Uiso   1.00
Pt2497 Pt    0.28711   0.53041   0.31855   0.00000  Uiso   1.00
Pt2498 Pt    0.28711   0.46959   0.68145   0.00000  Uiso   1.00
Pt2499 Pt    0.46959   0.28711   0.68145   0.00000  Uiso   1.00
Pt2500 Pt    0.46959   0.28711   0.31855   0.00000  Uiso   1.00
Pt2501 Pt    0.28711   0.46959   0.31855   0.00000  Uiso   1.00
Pt2502 Pt    0.34793   0.34793   0.68145   0.00000  Uiso   1.00
Pt2503 Pt    0.34793   0.34793   0.31855   0.00000  Uiso   1.00
Pt2504 Pt    0.77372   0.53041   0.56048   0.00000  Uiso   1.00
Pt2505 Pt    0.53041   0.77372   0.56048   0.00000  Uiso   1.00
Pt2506 Pt    0.77372   0.53041   0.43952   0.00000  Uiso   1.00
Pt2507 Pt    0.53041   0.77372   0.43952   0.00000  Uiso   1.00
Pt2508 Pt    0.77372   0.46959   0.56048   0.00000  Uiso   1.00
Pt2509 Pt    0.46959   0.77372   0.56048   0.00000  Uiso   1.00
Pt2510 Pt    0.46959   0.77372   0.43952   0.00000  Uiso   1.00
Pt2511 Pt    0.77372   0.46959   0.43952   0.00000  Uiso   1.00
Pt2512 Pt    0.53041   0.22628   0.56048   0.00000  Uiso   1.00
Pt2513 Pt    0.22628   0.53041   0.56048   0.00000  Uiso   1.00
Pt2514 Pt    0.53041   0.22628   0.43952   0.00000  Uiso   1.00
Pt2515 Pt    0.22628   0.53041   0.43952   0.00000  Uiso   1.00
Pt2516 Pt    0.46959   0.22628   0.56048   0.00000  Uiso   1.00
Pt2517 Pt    0.22628   0.46959   0.56048   0.00000  Uiso   1.00
Pt2518 Pt    0.46959   0.22628   0.43952   0.00000  Uiso   1.00
Pt2519 Pt    0.22628   0.46959   0.43952   0.00000  Uiso   1.00
Pt2520 Pt    0.68248   0.68248   0.37903   0.00000  Uiso   1.00
Pt2521 Pt    0.68248   0.68248   0.62097   0.00000  Uiso   1.00
Pt2522 Pt    0.68248   0.31752   0.37903   0.00000  Uiso   1.00
Pt2523 Pt    0.68248   0.31752   0.62097   0.00000  Uiso   1.00
Pt2524 Pt    0.31752   0.68248   0.62097   0.00000  Uiso   1.00
Pt2525 Pt    0.31752   0.68248   0.37903   0.00000  Uiso   1.00
Pt2526 Pt    0.31752   0.31752   0.37903   0.00000  Uiso   1.00
Pt2527 Pt    0.31752   0.31752   0.62097   0.00000  Uiso   1.00
Pt2528 Pt    0.59124   0.71289   0.68145   0.00000  Uiso   1.00
Pt2529 Pt    0.71289   0.59124   0.68145   0.00000  Uiso   1.00
Pt2530 Pt    0.59124   0.71289   0.31855   0.00000  Uiso   1.00
Pt2531 Pt    0.71289   0.59124   0.31855   0.00000  Uiso   1.00
Pt2532 Pt    0.71289   0.40876   0.68145   0.00000  Uiso   1.00
Pt2533 Pt    0.40876   0.71289   0.68145   0.00000  Uiso   1.00
Pt2534 Pt    0.71289   0.40876   0.31855   0.00000  Uiso   1.00
Pt2535 Pt    0.40876   0.71289   0.31855   0.00000  Uiso   1.00
Pt2536 Pt    0.59124   0.28711   0.68145   0.00000  Uiso   1.00
Pt2537 Pt    0.28711   0.59124   0.68145   0.00000  Uiso   1.00
Pt2538 Pt    0.59124   0.28711   0.31855   0.00000  Uiso   1.00
Pt2539 Pt    0.28711   0.59124   0.31855   0.00000  Uiso   1.00
Pt2540 Pt    0.28711   0.40876   0.68145   0.00000  Uiso   1.00
Pt2541 Pt    0.40876   0.28711   0.68145   0.00000  Uiso   1.00
Pt2542 Pt    0.40876   0.28711   0.31855   0.00000  Uiso   1.00
Pt2543 Pt    0.28711   0.40876   0.31855   0.00000  Uiso   1.00
Pt2544 Pt    0.59124   0.77372   0.56048   0.00000  Uiso   1.00
Pt2545 Pt    0.77372   0.59124   0.56048   0.00000  Uiso   1.00
Pt2546 Pt    0.59124   0.77372   0.43952   0.00000  Uiso   1.00
Pt2547 Pt    0.77372   0.59124   0.43952   0.00000  Uiso   1.00
Pt2548 Pt    0.77372   0.40876   0.56048   0.00000  Uiso   1.00
Pt2549 Pt    0.40876   0.77372   0.56048   0.00000  Uiso   1.00
Pt2550 Pt    0.77372   0.40876   0.43952   0.00000  Uiso   1.00
Pt2551 Pt    0.40876   0.77372   0.43952   0.00000  Uiso   1.00
Pt2552 Pt    0.59124   0.22628   0.56048   0.00000  Uiso   1.00
Pt2553 Pt    0.22628   0.59124   0.56048   0.00000  Uiso   1.00
Pt2554 Pt    0.59124   0.22628   0.43952   0.00000  Uiso   1.00
Pt2555 Pt    0.22628   0.59124   0.43952   0.00000  Uiso   1.00
Pt2556 Pt    0.40876   0.22628   0.56048   0.00000  Uiso   1.00
Pt2557 Pt    0.22628   0.40876   0.56048   0.00000  Uiso   1.00
Pt2558 Pt    0.40876   0.22628   0.43952   0.00000  Uiso   1.00
Pt2559 Pt    0.22628   0.40876   0.43952   0.00000  Uiso   1.00
Pt2560 Pt    0.62165   0.62165   0.74193   0.00000  Uiso   1.00
Pt2561 Pt    0.62165   0.62165   0.25807   0.00000  Uiso   1.00
Pt2562 Pt    0.62165   0.37835   0.74193   0.00000  Uiso   1.00
Pt2563 Pt    0.62165   0.37835   0.25807   0.00000  Uiso   1.00
Pt2564 Pt    0.37835   0.62165   0.74193   0.00000  Uiso   1.00
Pt2565 Pt    0.37835   0.37835   0.74193   0.00000  Uiso   1.00
Pt2566 Pt    0.37835   0.62165   0.25807   0.00000  Uiso   1.00
Pt2567 Pt    0.37835   0.37835   0.25807   0.00000  Uiso   1.00
Pt2568 Pt    0.74330   0.62165   0.62097   0.00000  Uiso   1.00
Pt2569 Pt    0.62165   0.74330   0.37903   0.00000  Uiso   1.00
Pt2570 Pt    0.62165   0.74330   0.62097   0.00000  Uiso   1.00
Pt2571 Pt    0.74330   0.62165   0.37903   0.00000  Uiso   1.00
Pt2572 Pt    0.62165   0.25670   0.37903   0.00000  Uiso   1.00
Pt2573 Pt    0.74330   0.37835   0.37903   0.00000  Uiso   1.00
Pt2574 Pt    0.25670   0.62165   0.37903   0.00000  Uiso   1.00
Pt2575 Pt    0.37835   0.74330   0.37903   0.00000  Uiso   1.00
Pt2576 Pt    0.74330   0.37835   0.62097   0.00000  Uiso   1.00
Pt2577 Pt    0.62165   0.25670   0.62097   0.00000  Uiso   1.00
Pt2578 Pt    0.37835   0.74330   0.62097   0.00000  Uiso   1.00
Pt2579 Pt    0.37835   0.25670   0.37903   0.00000  Uiso   1.00
Pt2580 Pt    0.25670   0.37835   0.37903   0.00000  Uiso   1.00
Pt2581 Pt    0.25670   0.62165   0.62097   0.00000  Uiso   1.00
Pt2582 Pt    0.37835   0.25670   0.62097   0.00000  Uiso   1.00
Pt2583 Pt    0.25670   0.37835   0.62097   0.00000  Uiso   1.00
Pt2584 Pt    0.68248   0.50000   0.74193   0.00000  Uiso   1.00
Pt2585 Pt    0.68248   0.50000   0.25807   0.00000  Uiso   1.00
Pt2586 Pt    0.50000   0.68248   0.74193   0.00000  Uiso   1.00
Pt2587 Pt    0.50000   0.68248   0.25807   0.00000  Uiso   1.00
Pt2588 Pt    0.31752   0.50000   0.74193   0.00000  Uiso   1.00
Pt2589 Pt    0.31752   0.50000   0.25807   0.00000  Uiso   1.00
Pt2590 Pt    0.50000   0.31752   0.25807   0.00000  Uiso   1.00
Pt2591 Pt    0.50000   0.31752   0.74193   0.00000  Uiso   1.00
Pt2592 Pt    0.74330   0.68248   0.50000   0.00000  Uiso   1.00
Pt2593 Pt    0.68248   0.74330   0.50000   0.00000  Uiso   1.00
Pt2594 Pt    0.68248   0.25670   0.50000   0.00000  Uiso   1.00
Pt2595 Pt    0.50000   0.80413   0.50000   0.00000  Uiso   1.00
Pt2596 Pt    0.80413   0.50000   0.50000   0.00000  Uiso   1.00
Pt2597 Pt    0.31752   0.74330   0.50000   0.00000  Uiso   1.00
Pt2598 Pt    0.74330   0.31752   0.50000   0.00000  Uiso   1.00
Pt2599 Pt    0.25670   0.68248   0.50000   0.00000  Uiso   1.00
Pt2600 Pt    0.19587   0.50000   0.50000   0.00000  Uiso   1.00
Pt2601 Pt    0.31752   0.25670   0.50000   0.00000  Uiso   1.00
Pt2602 Pt    0.50000   0.19587   0.50000   0.00000  Uiso   1.00
Pt2603 Pt    0.25670   0.31752   0.50000   0.00000  Uiso   1.00
Pt2604 Pt    0.53041   0.53041   0.80242   0.00000  Uiso   1.00
Pt2605 Pt    0.53041   0.53041   0.19758   0.00000  Uiso   1.00
Pt2606 Pt    0.46959   0.53041   0.80242   0.00000  Uiso   1.00
Pt2607 Pt    0.53041   0.46959   0.80242   0.00000  Uiso   1.00
Pt2608 Pt    0.53041   0.46959   0.19758   0.00000  Uiso   1.00
Pt2609 Pt    0.46959   0.53041   0.19758   0.00000  Uiso   1.00
Pt2610 Pt    0.46959   0.46959   0.80242   0.00000  Uiso   1.00
Pt2611 Pt    0.46959   0.46959   0.19758   0.00000  Uiso   1.00
Pt2612 Pt    0.71289   0.71289   0.56048   0.00000  Uiso   1.00
Pt2613 Pt    0.71289   0.71289   0.43952   0.00000  Uiso   1.00
Pt2614 Pt    0.71289   0.28711   0.56048   0.00000  Uiso   1.00
Pt2615 Pt    0.28711   0.71289   0.56048   0.00000  Uiso   1.00
Pt2616 Pt    0.71289   0.28711   0.43952   0.00000  Uiso   1.00
Pt2617 Pt    0.28711   0.71289   0.43952   0.00000  Uiso   1.00
Pt2618 Pt    0.28711   0.28711   0.56048   0.00000  Uiso   1.00
Pt2619 Pt    0.28711   0.28711   0.43952   0.00000  Uiso   1.00
Pt2620 Pt    0.56083   0.68248   0.25807   0.00000  Uiso   1.00
Pt2621 Pt    0.56083   0.68248   0.74193   0.00000  Uiso   1.00
Pt2622 Pt    0.43917   0.68248   0.25807   0.00000  Uiso   1.00
Pt2623 Pt    0.68248   0.43917   0.25807   0.00000  Uiso   1.00
Pt2624 Pt    0.68248   0.56083   0.25807   0.00000  Uiso   1.00
Pt2625 Pt    0.68248   0.43917   0.74193   0.00000  Uiso   1.00
Pt2626 Pt    0.43917   0.68248   0.74193   0.00000  Uiso   1.00
Pt2627 Pt    0.68248   0.56083   0.74193   0.00000  Uiso   1.00
Pt2628 Pt    0.43917   0.31752   0.74193   0.00000  Uiso   1.00
Pt2629 Pt    0.31752   0.43917   0.25807   0.00000  Uiso   1.00
Pt2630 Pt    0.31752   0.56083   0.25807   0.00000  Uiso   1.00
Pt2631 Pt    0.43917   0.31752   0.25807   0.00000  Uiso   1.00
Pt2632 Pt    0.56083   0.31752   0.74193   0.00000  Uiso   1.00
Pt2633 Pt    0.31752   0.56083   0.74193   0.00000  Uiso   1.00
Pt2634 Pt    0.31752   0.43917   0.74193   0.00000  Uiso   1.00
Pt2635 Pt    0.56083   0.31752   0.25807   0.00000  Uiso   1.00
Pt2636 Pt    0.80413   0.43917   0.50000   0.00000  Uiso   1.00
Pt2637 Pt    0.43917   0.80413   0.50000   0.00000  Uiso   1.00
Pt2638 Pt    0.56083   0.80413   0.50000   0.00000  Uiso   1.00
Pt2639 Pt    0.80413   0.56083   0.50000   0.00000  Uiso   1.00
Pt2640 Pt    0.56083   0.19587   0.50000   0.00000  Uiso   1.00
Pt2641 Pt    0.19587   0.56083   0.50000   0.00000  Uiso   1.00
Pt2642 Pt    0.19587   0.43917   0.50000   0.00000  Uiso   1.00
Pt2643 Pt    0.43917   0.19587   0.50000   0.00000  Uiso   1.00
Pt2644 Pt    0.59124   0.53041   0.80242   0.00000  Uiso   1.00
Pt2645 Pt    0.53041   0.59124   0.80242   0.00000  Uiso   1.00
Pt2646 Pt    0.59124   0.53041   0.19758   0.00000  Uiso   1.00
Pt2647 Pt    0.53041   0.59124   0.19758   0.00000  Uiso   1.00
Pt2648 Pt    0.59124   0.46959   0.80242   0.00000  Uiso   1.00
Pt2649 Pt    0.46959   0.59124   0.80242   0.00000  Uiso   1.00
Pt2650 Pt    0.46959   0.59124   0.19758   0.00000  Uiso   1.00
Pt2651 Pt    0.59124   0.46959   0.19758   0.00000  Uiso   1.00
Pt2652 Pt    0.40876   0.53041   0.80242   0.00000  Uiso   1.00
Pt2653 Pt    0.53041   0.40876   0.80242   0.00000  Uiso   1.00
Pt2654 Pt    0.40876   0.53041   0.19758   0.00000  Uiso   1.00
Pt2655 Pt    0.53041   0.40876   0.19758   0.00000  Uiso   1.00
Pt2656 Pt    0.46959   0.40876   0.80242   0.00000  Uiso   1.00
Pt2657 Pt    0.40876   0.46959   0.80242   0.00000  Uiso   1.00
Pt2658 Pt    0.40876   0.46959   0.19758   0.00000  Uiso   1.00
Pt2659 Pt    0.46959   0.40876   0.19758   0.00000  Uiso   1.00
Pt2660 Pt    0.71289   0.65207   0.68145   0.00000  Uiso   1.00
Pt2661 Pt    0.65207   0.71289   0.68145   0.00000  Uiso   1.00
Pt2662 Pt    0.71289   0.65207   0.31855   0.00000  Uiso   1.00
Pt2663 Pt    0.65207   0.71289   0.31855   0.00000  Uiso   1.00
Pt2664 Pt    0.71289   0.34793   0.68145   0.00000  Uiso   1.00
Pt2665 Pt    0.34793   0.71289   0.68145   0.00000  Uiso   1.00
Pt2666 Pt    0.71289   0.34793   0.31855   0.00000  Uiso   1.00
Pt2667 Pt    0.34793   0.71289   0.31855   0.00000  Uiso   1.00
Pt2668 Pt    0.65207   0.28711   0.68145   0.00000  Uiso   1.00
Pt2669 Pt    0.28711   0.65207   0.68145   0.00000  Uiso   1.00
Pt2670 Pt    0.28711   0.65207   0.31855   0.00000  Uiso   1.00
Pt2671 Pt    0.65207   0.28711   0.31855   0.00000  Uiso   1.00
Pt2672 Pt    0.34793   0.28711   0.68145   0.00000  Uiso   1.00
Pt2673 Pt    0.28711   0.34793   0.68145   0.00000  Uiso   1.00
Pt2674 Pt    0.34793   0.28711   0.31855   0.00000  Uiso   1.00
Pt2675 Pt    0.28711   0.34793   0.31855   0.00000  Uiso   1.00
Pt2676 Pt    0.77372   0.65207   0.56048   0.00000  Uiso   1.00
Pt2677 Pt    0.65207   0.77372   0.56048   0.00000  Uiso   1.00
Pt2678 Pt    0.77372   0.65207   0.43952   0.00000  Uiso   1.00
Pt2679 Pt    0.65207   0.77372   0.43952   0.00000  Uiso   1.00
Pt2680 Pt    0.77372   0.34793   0.56048   0.00000  Uiso   1.00
Pt2681 Pt    0.34793   0.77372   0.56048   0.00000  Uiso   1.00
Pt2682 Pt    0.34793   0.77372   0.43952   0.00000  Uiso   1.00
Pt2683 Pt    0.77372   0.34793   0.43952   0.00000  Uiso   1.00
Pt2684 Pt    0.65207   0.22628   0.56048   0.00000  Uiso   1.00
Pt2685 Pt    0.22628   0.65207   0.56048   0.00000  Uiso   1.00
Pt2686 Pt    0.65207   0.22628   0.43952   0.00000  Uiso   1.00
Pt2687 Pt    0.22628   0.65207   0.43952   0.00000  Uiso   1.00
Pt2688 Pt    0.34793   0.22628   0.56048   0.00000  Uiso   1.00
Pt2689 Pt    0.22628   0.34793   0.56048   0.00000  Uiso   1.00
Pt2690 Pt    0.34793   0.22628   0.43952   0.00000  Uiso   1.00
Pt2691 Pt    0.22628   0.34793   0.43952   0.00000  Uiso   1.00
Pt2692 Pt    0.68248   0.62165   0.74193   0.00000  Uiso   1.00
Pt2693 Pt    0.62165   0.68248   0.74193   0.00000  Uiso   1.00
Pt2694 Pt    0.68248   0.62165   0.25807   0.00000  Uiso   1.00
Pt2695 Pt    0.62165   0.68248   0.25807   0.00000  Uiso   1.00
Pt2696 Pt    0.68248   0.37835   0.25807   0.00000  Uiso   1.00
Pt2697 Pt    0.68248   0.37835   0.74193   0.00000  Uiso   1.00
Pt2698 Pt    0.37835   0.68248   0.25807   0.00000  Uiso   1.00
Pt2699 Pt    0.37835   0.68248   0.74193   0.00000  Uiso   1.00
Pt2700 Pt    0.31752   0.62165   0.25807   0.00000  Uiso   1.00
Pt2701 Pt    0.62165   0.31752   0.25807   0.00000  Uiso   1.00
Pt2702 Pt    0.31752   0.62165   0.74193   0.00000  Uiso   1.00
Pt2703 Pt    0.62165   0.31752   0.74193   0.00000  Uiso   1.00
Pt2704 Pt    0.31752   0.37835   0.25807   0.00000  Uiso   1.00
Pt2705 Pt    0.31752   0.37835   0.74193   0.00000  Uiso   1.00
Pt2706 Pt    0.37835   0.31752   0.74193   0.00000  Uiso   1.00
Pt2707 Pt    0.37835   0.31752   0.25807   0.00000  Uiso   1.00
Pt2708 Pt    0.68248   0.74330   0.37903   0.00000  Uiso   1.00
Pt2709 Pt    0.68248   0.74330   0.62097   0.00000  Uiso   1.00
Pt2710 Pt    0.74330   0.68248   0.37903   0.00000  Uiso   1.00
Pt2711 Pt    0.74330   0.68248   0.62097   0.00000  Uiso   1.00
Pt2712 Pt    0.50000   0.80413   0.37903   0.00000  Uiso   1.00
Pt2713 Pt    0.80413   0.50000   0.37903   0.00000  Uiso   1.00
Pt2714 Pt    0.68248   0.25670   0.37903   0.00000  Uiso   1.00
Pt2715 Pt    0.50000   0.80413   0.62097   0.00000  Uiso   1.00
Pt2716 Pt    0.31752   0.74330   0.37903   0.00000  Uiso   1.00
Pt2717 Pt    0.25670   0.68248   0.37903   0.00000  Uiso   1.00
Pt2718 Pt    0.68248   0.25670   0.62097   0.00000  Uiso   1.00
Pt2719 Pt    0.80413   0.50000   0.62097   0.00000  Uiso   1.00
Pt2720 Pt    0.74330   0.31752   0.37903   0.00000  Uiso   1.00
Pt2721 Pt    0.25670   0.68248   0.62097   0.00000  Uiso   1.00
Pt2722 Pt    0.31752   0.74330   0.62097   0.00000  Uiso   1.00
Pt2723 Pt    0.74330   0.31752   0.62097   0.00000  Uiso   1.00
Pt2724 Pt    0.31752   0.25670   0.37903   0.00000  Uiso   1.00
Pt2725 Pt    0.50000   0.19587   0.37903   0.00000  Uiso   1.00
Pt2726 Pt    0.19587   0.50000   0.37903   0.00000  Uiso   1.00
Pt2727 Pt    0.25670   0.31752   0.37903   0.00000  Uiso   1.00
Pt2728 Pt    0.31752   0.25670   0.62097   0.00000  Uiso   1.00
Pt2729 Pt    0.19587   0.50000   0.62097   0.00000  Uiso   1.00
Pt2730 Pt    0.50000   0.19587   0.62097   0.00000  Uiso   1.00
Pt2731 Pt    0.25670   0.31752   0.62097   0.00000  Uiso   1.00
Pt2732 Pt    0.62165   0.80413   0.50000   0.00000  Uiso   1.00
Pt2733 Pt    0.80413   0.62165   0.50000   0.00000  Uiso   1.00
Pt2734 Pt    0.80413   0.37835   0.50000   0.00000  Uiso   1.00
Pt2735 Pt    0.37835   0.80413   0.50000   0.00000  Uiso   1.00
Pt2736 Pt    0.62165   0.19587   0.50000   0.00000  Uiso   1.00
Pt2737 Pt    0.19587   0.62165   0.50000   0.00000  Uiso   1.00
Pt2738 Pt    0.37835   0.19587   0.50000   0.00000  Uiso   1.00
Pt2739 Pt    0.19587   0.37835   0.50000   0.00000  Uiso   1.00
Pt2740 Pt    0.59124   0.59124   0.80242   0.00000  Uiso   1.00
Pt2741 Pt    0.59124   0.59124   0.19758   0.00000  Uiso   1.00
Pt2742 Pt    0.40876   0.59124   0.80242   0.00000  Uiso   1.00
Pt2743 Pt    0.59124   0.40876   0.80242   0.00000  Uiso   1.00
Pt2744 Pt    0.59124   0.40876   0.19758   0.00000  Uiso   1.00
Pt2745 Pt    0.40876   0.59124   0.19758   0.00000  Uiso   1.00
Pt2746 Pt    0.40876   0.40876   0.80242   0.00000  Uiso   1.00
Pt2747 Pt    0.40876   0.40876   0.19758   0.00000  Uiso   1.00
Pt2748 Pt    0.77372   0.53041   0.68145   0.00000  Uiso   1.00
Pt2749 Pt    0.53041   0.77372   0.68145   0.00000  Uiso   1.00
Pt2750 Pt    0.53041   0.77372   0.31855   0.00000  Uiso   1.00
Pt2751 Pt    0.77372   0.53041   0.31855   0.00000  Uiso   1.00
Pt2752 Pt    0.77372   0.46959   0.68145   0.00000  Uiso   1.00
Pt2753 Pt    0.46959   0.77372   0.68145   0.00000  Uiso   1.00
Pt2754 Pt    0.77372   0.46959   0.31855   0.00000  Uiso   1.00
Pt2755 Pt    0.46959   0.77372   0.31855   0.00000  Uiso   1.00
Pt2756 Pt    0.53041   0.22628   0.68145   0.00000  Uiso   1.00
Pt2757 Pt    0.22628   0.53041   0.68145   0.00000  Uiso   1.00
Pt2758 Pt    0.53041   0.22628   0.31855   0.00000  Uiso   1.00
Pt2759 Pt    0.22628   0.53041   0.31855   0.00000  Uiso   1.00
Pt2760 Pt    0.46959   0.22628   0.68145   0.00000  Uiso   1.00
Pt2761 Pt    0.22628   0.46959   0.68145   0.00000  Uiso   1.00
Pt2762 Pt    0.46959   0.22628   0.31855   0.00000  Uiso   1.00
Pt2763 Pt    0.22628   0.46959   0.31855   0.00000  Uiso   1.00
Pt2764 Pt    0.56083   0.80413   0.37903   0.00000  Uiso   1.00
Pt2765 Pt    0.56083   0.80413   0.62097   0.00000  Uiso   1.00
Pt2766 Pt    0.80413   0.56083   0.62097   0.00000  Uiso   1.00
Pt2767 Pt    0.80413   0.43917   0.37903   0.00000  Uiso   1.00
Pt2768 Pt    0.43917   0.80413   0.37903   0.00000  Uiso   1.00
Pt2769 Pt    0.80413   0.56083   0.37903   0.00000  Uiso   1.00
Pt2770 Pt    0.43917   0.80413   0.62097   0.00000  Uiso   1.00
Pt2771 Pt    0.80413   0.43917   0.62097   0.00000  Uiso   1.00
Pt2772 Pt    0.19587   0.56083   0.37903   0.00000  Uiso   1.00
Pt2773 Pt    0.56083   0.19587   0.37903   0.00000  Uiso   1.00
Pt2774 Pt    0.19587   0.56083   0.62097   0.00000  Uiso   1.00
Pt2775 Pt    0.43917   0.19587   0.37903   0.00000  Uiso   1.00
Pt2776 Pt    0.19587   0.43917   0.37903   0.00000  Uiso   1.00
Pt2777 Pt    0.56083   0.19587   0.62097   0.00000  Uiso   1.00
Pt2778 Pt    0.19587   0.43917   0.62097   0.00000  Uiso   1.00
Pt2779 Pt    0.43917   0.19587   0.62097   0.00000  Uiso   1.00
