# generated using pymatgen
data_Ni286Pt1957
_symmetry_space_group_name_H-M   'P 1'
_cell_length_a   60.00000000
_cell_length_b   60.00000000
_cell_length_c   60.00000000
_cell_angle_alpha   90.00000000
_cell_angle_beta   90.00000000
_cell_angle_gamma   90.00000000
_symmetry_Int_Tables_number   1
_chemical_formula_structural   Ni286Pt1957
_chemical_formula_sum   'Ni286 Pt1957'
_cell_volume   216000.00000000
_cell_formula_units_Z   1
loop_
 _symmetry_equiv_pos_site_id
 _symmetry_equiv_pos_as_xyz
  1  'x, y, z'
loop_
 _atom_site_type_symbol
 _atom_site_label
 _atom_site_symmetry_multiplicity
 _atom_site_fract_x
 _atom_site_fract_y
 _atom_site_fract_z
 _atom_site_occupancy
  Ni  Ni0  1  0.50000000  0.50000000  0.56535640  1
  Ni  Ni1  1  0.50000000  0.50000000  0.43464358  1
  Ni  Ni2  1  0.56529661  0.50000000  0.56535640  1
  Ni  Ni3  1  0.50000000  0.43470338  0.56535640  1
  Ni  Ni4  1  0.43470338  0.50000000  0.56535640  1
  Ni  Ni5  1  0.50000000  0.56529661  0.56535640  1
  Ni  Ni6  1  0.56529661  0.50000000  0.43464358  1
  Ni  Ni7  1  0.43470338  0.50000000  0.43464358  1
  Ni  Ni8  1  0.50000000  0.56529661  0.43464358  1
  Ni  Ni9  1  0.50000000  0.43470338  0.43464358  1
  Ni  Ni10  1  0.56529661  0.56529661  0.56535640  1
  Ni  Ni11  1  0.56529661  0.43470338  0.56535640  1
  Ni  Ni12  1  0.43470338  0.43470338  0.56535640  1
  Ni  Ni13  1  0.43470338  0.56529661  0.56535640  1
  Ni  Ni14  1  0.56529661  0.56529661  0.43464358  1
  Ni  Ni15  1  0.56529661  0.43470338  0.43464358  1
  Ni  Ni16  1  0.43470338  0.43470338  0.43464358  1
  Ni  Ni17  1  0.43470338  0.56529661  0.43464358  1
  Ni  Ni18  1  0.63059323  0.50000000  0.56535640  1
  Ni  Ni19  1  0.50000000  0.63059323  0.56535640  1
  Ni  Ni20  1  0.36940676  0.50000000  0.56535640  1
  Ni  Ni21  1  0.50000000  0.36940676  0.56535640  1
  Ni  Ni22  1  0.63059323  0.50000000  0.43464358  1
  Ni  Ni23  1  0.50000000  0.36940676  0.43464358  1
  Ni  Ni24  1  0.50000000  0.63059323  0.43464358  1
  Ni  Ni25  1  0.36940676  0.50000000  0.43464358  1
  Ni  Ni26  1  0.56529661  0.36940676  0.56535640  1
  Ni  Ni27  1  0.56529661  0.63059323  0.56535640  1
  Ni  Ni28  1  0.63059323  0.43470338  0.56535640  1
  Ni  Ni29  1  0.63059323  0.56529661  0.56535640  1
  Ni  Ni30  1  0.43470338  0.36940676  0.56535640  1
  Ni  Ni31  1  0.36940676  0.43470338  0.56535640  1
  Ni  Ni32  1  0.43470338  0.63059323  0.56535640  1
  Ni  Ni33  1  0.36940676  0.56529661  0.56535640  1
  Ni  Ni34  1  0.63059323  0.43470338  0.43464358  1
  Ni  Ni35  1  0.56529661  0.63059323  0.43464358  1
  Ni  Ni36  1  0.63059323  0.56529661  0.43464358  1
  Ni  Ni37  1  0.56529661  0.36940676  0.43464358  1
  Ni  Ni38  1  0.43470338  0.36940676  0.43464358  1
  Ni  Ni39  1  0.36940676  0.43470338  0.43464358  1
  Ni  Ni40  1  0.43470338  0.63059323  0.43464358  1
  Ni  Ni41  1  0.36940676  0.56529661  0.43464358  1
  Ni  Ni42  1  0.63059323  0.36940676  0.56535640  1
  Ni  Ni43  1  0.63059323  0.63059323  0.56535640  1
  Ni  Ni44  1  0.36940676  0.36940676  0.56535640  1
  Ni  Ni45  1  0.36940676  0.63059323  0.56535640  1
  Ni  Ni46  1  0.63059323  0.36940676  0.43464358  1
  Ni  Ni47  1  0.63059323  0.63059323  0.43464358  1
  Ni  Ni48  1  0.36940676  0.36940676  0.43464358  1
  Ni  Ni49  1  0.36940676  0.63059323  0.43464358  1
  Ni  Ni50  1  0.50000000  0.50000000  0.69606921  1
  Ni  Ni51  1  0.50000000  0.50000000  0.30393076  1
  Ni  Ni52  1  0.69588985  0.50000000  0.56535640  1
  Ni  Ni53  1  0.50000000  0.69588985  0.56535640  1
  Ni  Ni54  1  0.50000000  0.30411015  0.56535640  1
  Ni  Ni55  1  0.30411015  0.50000000  0.56535640  1
  Ni  Ni56  1  0.69588985  0.50000000  0.43464358  1
  Ni  Ni57  1  0.50000000  0.69588985  0.43464358  1
  Ni  Ni58  1  0.50000000  0.30411015  0.43464358  1
  Ni  Ni59  1  0.30411015  0.50000000  0.43464358  1
  Ni  Ni60  1  0.56529661  0.50000000  0.69606921  1
  Ni  Ni61  1  0.50000000  0.56529661  0.69606921  1
  Ni  Ni62  1  0.50000000  0.43470338  0.69606921  1
  Ni  Ni63  1  0.43470338  0.50000000  0.69606921  1
  Ni  Ni64  1  0.56529661  0.50000000  0.30393076  1
  Ni  Ni65  1  0.50000000  0.56529661  0.30393076  1
  Ni  Ni66  1  0.43470338  0.50000000  0.30393076  1
  Ni  Ni67  1  0.50000000  0.43470338  0.30393076  1
  Ni  Ni68  1  0.69588985  0.43470338  0.56535640  1
  Ni  Ni69  1  0.56529661  0.69588985  0.56535640  1
  Ni  Ni70  1  0.69588985  0.56529661  0.56535640  1
  Ni  Ni71  1  0.56529661  0.30411015  0.56535640  1
  Ni  Ni72  1  0.43470338  0.30411015  0.56535640  1
  Ni  Ni73  1  0.43470338  0.69588985  0.56535640  1
  Ni  Ni74  1  0.30411015  0.56529661  0.56535640  1
  Ni  Ni75  1  0.30411015  0.43470338  0.56535640  1
  Ni  Ni76  1  0.69588985  0.43470338  0.43464358  1
  Ni  Ni77  1  0.69588985  0.56529661  0.43464358  1
  Ni  Ni78  1  0.56529661  0.69588985  0.43464358  1
  Ni  Ni79  1  0.56529661  0.30411015  0.43464358  1
  Ni  Ni80  1  0.43470338  0.30411015  0.43464358  1
  Ni  Ni81  1  0.43470338  0.69588985  0.43464358  1
  Ni  Ni82  1  0.30411015  0.56529661  0.43464358  1
  Ni  Ni83  1  0.30411015  0.43470338  0.43464358  1
  Ni  Ni84  1  0.56529661  0.56529661  0.69606921  1
  Ni  Ni85  1  0.56529661  0.43470338  0.69606921  1
  Ni  Ni86  1  0.43470338  0.43470338  0.69606921  1
  Ni  Ni87  1  0.43470338  0.56529661  0.69606921  1
  Ni  Ni88  1  0.56529661  0.43470338  0.30393076  1
  Ni  Ni89  1  0.56529661  0.56529661  0.30393076  1
  Ni  Ni90  1  0.43470338  0.56529661  0.30393076  1
  Ni  Ni91  1  0.43470338  0.43470338  0.30393076  1
  Ni  Ni92  1  0.63059323  0.50000000  0.69606921  1
  Ni  Ni93  1  0.36940676  0.50000000  0.69606921  1
  Ni  Ni94  1  0.50000000  0.63059323  0.69606921  1
  Ni  Ni95  1  0.50000000  0.36940676  0.69606921  1
  Ni  Ni96  1  0.63059323  0.50000000  0.30393076  1
  Ni  Ni97  1  0.36940676  0.50000000  0.30393076  1
  Ni  Ni98  1  0.50000000  0.63059323  0.30393076  1
  Ni  Ni99  1  0.50000000  0.36940676  0.30393076  1
  Ni  Ni100  1  0.63059323  0.69588985  0.56535640  1
  Ni  Ni101  1  0.69588985  0.63059323  0.56535640  1
  Ni  Ni102  1  0.69588985  0.36940676  0.56535640  1
  Ni  Ni103  1  0.63059323  0.30411015  0.56535640  1
  Ni  Ni104  1  0.36940676  0.30411015  0.56535640  1
  Ni  Ni105  1  0.30411015  0.36940676  0.56535640  1
  Ni  Ni106  1  0.30411015  0.63059323  0.56535640  1
  Ni  Ni107  1  0.36940676  0.69588985  0.56535640  1
  Ni  Ni108  1  0.69588985  0.63059323  0.43464358  1
  Ni  Ni109  1  0.69588985  0.36940676  0.43464358  1
  Ni  Ni110  1  0.63059323  0.30411015  0.43464358  1
  Ni  Ni111  1  0.63059323  0.69588985  0.43464358  1
  Ni  Ni112  1  0.30411015  0.63059323  0.43464358  1
  Ni  Ni113  1  0.36940676  0.30411015  0.43464358  1
  Ni  Ni114  1  0.36940676  0.69588985  0.43464358  1
  Ni  Ni115  1  0.30411015  0.36940676  0.43464358  1
  Ni  Ni116  1  0.56529661  0.63059323  0.69606921  1
  Ni  Ni117  1  0.63059323  0.43470338  0.69606921  1
  Ni  Ni118  1  0.63059323  0.56529661  0.69606921  1
  Ni  Ni119  1  0.56529661  0.36940676  0.69606921  1
  Ni  Ni120  1  0.36940676  0.43470338  0.69606921  1
  Ni  Ni121  1  0.43470338  0.36940676  0.69606921  1
  Ni  Ni122  1  0.43470338  0.63059323  0.69606921  1
  Ni  Ni123  1  0.36940676  0.56529661  0.69606921  1
  Ni  Ni124  1  0.56529661  0.36940676  0.30393076  1
  Ni  Ni125  1  0.56529661  0.63059323  0.30393076  1
  Ni  Ni126  1  0.63059323  0.43470338  0.30393076  1
  Ni  Ni127  1  0.63059323  0.56529661  0.30393076  1
  Ni  Ni128  1  0.43470338  0.36940676  0.30393076  1
  Ni  Ni129  1  0.36940676  0.56529661  0.30393076  1
  Ni  Ni130  1  0.43470338  0.63059323  0.30393076  1
  Ni  Ni131  1  0.36940676  0.43470338  0.30393076  1
  Ni  Ni132  1  0.76118646  0.50000000  0.56535640  1
  Ni  Ni133  1  0.50000000  0.23881353  0.56535640  1
  Ni  Ni134  1  0.50000000  0.76118646  0.56535640  1
  Ni  Ni135  1  0.23881353  0.50000000  0.56535640  1
  Ni  Ni136  1  0.76118646  0.50000000  0.43464358  1
  Ni  Ni137  1  0.50000000  0.23881353  0.43464358  1
  Ni  Ni138  1  0.50000000  0.76118646  0.43464358  1
  Ni  Ni139  1  0.23881353  0.50000000  0.43464358  1
  Ni  Ni140  1  0.63059323  0.63059323  0.69606921  1
  Ni  Ni141  1  0.63059323  0.36940676  0.69606921  1
  Ni  Ni142  1  0.36940676  0.63059323  0.69606921  1
  Ni  Ni143  1  0.36940676  0.36940676  0.69606921  1
  Ni  Ni144  1  0.63059323  0.36940676  0.30393076  1
  Ni  Ni145  1  0.63059323  0.63059323  0.30393076  1
  Ni  Ni146  1  0.36940676  0.63059323  0.30393076  1
  Ni  Ni147  1  0.36940676  0.36940676  0.30393076  1
  Ni  Ni148  1  0.76118646  0.43470338  0.56535640  1
  Ni  Ni149  1  0.76118646  0.56529661  0.56535640  1
  Ni  Ni150  1  0.56529661  0.76118646  0.56535640  1
  Ni  Ni151  1  0.56529661  0.23881353  0.56535640  1
  Ni  Ni152  1  0.43470338  0.23881353  0.56535640  1
  Ni  Ni153  1  0.43470338  0.76118646  0.56535640  1
  Ni  Ni154  1  0.23881353  0.43470338  0.56535640  1
  Ni  Ni155  1  0.23881353  0.56529661  0.56535640  1
  Ni  Ni156  1  0.76118646  0.56529661  0.43464358  1
  Ni  Ni157  1  0.76118646  0.43470338  0.43464358  1
  Ni  Ni158  1  0.56529661  0.23881353  0.43464358  1
  Ni  Ni159  1  0.56529661  0.76118646  0.43464358  1
  Ni  Ni160  1  0.43470338  0.76118646  0.43464358  1
  Ni  Ni161  1  0.43470338  0.23881353  0.43464358  1
  Ni  Ni162  1  0.23881353  0.56529661  0.43464358  1
  Ni  Ni163  1  0.23881353  0.43470338  0.43464358  1
  Ni  Ni164  1  0.69588985  0.50000000  0.69606921  1
  Ni  Ni165  1  0.50000000  0.30411015  0.69606921  1
  Ni  Ni166  1  0.50000000  0.69588985  0.69606921  1
  Ni  Ni167  1  0.30411015  0.50000000  0.69606921  1
  Ni  Ni168  1  0.69588985  0.50000000  0.30393076  1
  Ni  Ni169  1  0.50000000  0.69588985  0.30393076  1
  Ni  Ni170  1  0.50000000  0.30411015  0.30393076  1
  Ni  Ni171  1  0.30411015  0.50000000  0.30393076  1
  Ni  Ni172  1  0.69588985  0.30411015  0.56535640  1
  Ni  Ni173  1  0.69588985  0.69588985  0.56535640  1
  Ni  Ni174  1  0.30411015  0.69588985  0.56535640  1
  Ni  Ni175  1  0.30411015  0.30411015  0.56535640  1
  Ni  Ni176  1  0.69588985  0.30411015  0.43464358  1
  Ni  Ni177  1  0.69588985  0.69588985  0.43464358  1
  Ni  Ni178  1  0.30411015  0.69588985  0.43464358  1
  Ni  Ni179  1  0.30411015  0.30411015  0.43464358  1
  Ni  Ni180  1  0.69588985  0.56529661  0.69606921  1
  Ni  Ni181  1  0.56529661  0.30411015  0.69606921  1
  Ni  Ni182  1  0.69588985  0.43470338  0.69606921  1
  Ni  Ni183  1  0.56529661  0.69588985  0.69606921  1
  Ni  Ni184  1  0.43470338  0.30411015  0.69606921  1
  Ni  Ni185  1  0.30411015  0.56529661  0.69606921  1
  Ni  Ni186  1  0.30411015  0.43470338  0.69606921  1
  Ni  Ni187  1  0.43470338  0.69588985  0.69606921  1
  Ni  Ni188  1  0.69588985  0.56529661  0.30393076  1
  Ni  Ni189  1  0.56529661  0.69588985  0.30393076  1
  Ni  Ni190  1  0.69588985  0.43470338  0.30393076  1
  Ni  Ni191  1  0.43470338  0.69588985  0.30393076  1
  Ni  Ni192  1  0.30411015  0.56529661  0.30393076  1
  Ni  Ni193  1  0.56529661  0.30411015  0.30393076  1
  Ni  Ni194  1  0.43470338  0.30411015  0.30393076  1
  Ni  Ni195  1  0.30411015  0.43470338  0.30393076  1
  Ni  Ni196  1  0.76118646  0.36940676  0.56535640  1
  Ni  Ni197  1  0.76118646  0.63059323  0.56535640  1
  Ni  Ni198  1  0.36940676  0.23881353  0.56535640  1
  Ni  Ni199  1  0.63059323  0.76118646  0.56535640  1
  Ni  Ni200  1  0.63059323  0.23881353  0.56535640  1
  Ni  Ni201  1  0.36940676  0.76118646  0.56535640  1
  Ni  Ni202  1  0.23881353  0.36940676  0.56535640  1
  Ni  Ni203  1  0.23881353  0.63059323  0.56535640  1
  Ni  Ni204  1  0.63059323  0.76118646  0.43464358  1
  Ni  Ni205  1  0.76118646  0.63059323  0.43464358  1
  Ni  Ni206  1  0.76118646  0.36940676  0.43464358  1
  Ni  Ni207  1  0.63059323  0.23881353  0.43464358  1
  Ni  Ni208  1  0.36940676  0.23881353  0.43464358  1
  Ni  Ni209  1  0.36940676  0.76118646  0.43464358  1
  Ni  Ni210  1  0.23881353  0.63059323  0.43464358  1
  Ni  Ni211  1  0.23881353  0.36940676  0.43464358  1
  Ni  Ni212  1  0.69588985  0.63059323  0.69606921  1
  Ni  Ni213  1  0.69588985  0.36940676  0.69606921  1
  Ni  Ni214  1  0.63059323  0.30411015  0.69606921  1
  Ni  Ni215  1  0.63059323  0.69588985  0.69606921  1
  Ni  Ni216  1  0.30411015  0.36940676  0.69606921  1
  Ni  Ni217  1  0.36940676  0.30411015  0.69606921  1
  Ni  Ni218  1  0.36940676  0.69588985  0.69606921  1
  Ni  Ni219  1  0.30411015  0.63059323  0.69606921  1
  Ni  Ni220  1  0.63059323  0.69588985  0.30393076  1
  Ni  Ni221  1  0.69588985  0.63059323  0.30393076  1
  Ni  Ni222  1  0.63059323  0.30411015  0.30393076  1
  Ni  Ni223  1  0.69588985  0.36940676  0.30393076  1
  Ni  Ni224  1  0.36940676  0.30411015  0.30393076  1
  Ni  Ni225  1  0.30411015  0.63059323  0.30393076  1
  Ni  Ni226  1  0.36940676  0.69588985  0.30393076  1
  Ni  Ni227  1  0.30411015  0.36940676  0.30393076  1
  Ni  Ni228  1  0.76118646  0.50000000  0.69606921  1
  Ni  Ni229  1  0.50000000  0.23881353  0.69606921  1
  Ni  Ni230  1  0.50000000  0.76118646  0.69606921  1
  Ni  Ni231  1  0.23881353  0.50000000  0.69606921  1
  Ni  Ni232  1  0.76118646  0.50000000  0.30393076  1
  Ni  Ni233  1  0.50000000  0.23881353  0.30393076  1
  Ni  Ni234  1  0.50000000  0.76118646  0.30393076  1
  Ni  Ni235  1  0.23881353  0.50000000  0.30393076  1
  Ni  Ni236  1  0.50000000  0.50000000  0.82678203  1
  Ni  Ni237  1  0.50000000  0.50000000  0.17321795  1
  Ni  Ni238  1  0.76118646  0.69588985  0.56535640  1
  Ni  Ni239  1  0.76118646  0.30411015  0.56535640  1
  Ni  Ni240  1  0.69588985  0.76118646  0.56535640  1
  Ni  Ni241  1  0.82648308  0.50000000  0.56535640  1
  Ni  Ni242  1  0.69588985  0.23881353  0.56535640  1
  Ni  Ni243  1  0.50000000  0.82648308  0.56535640  1
  Ni  Ni244  1  0.50000000  0.17351691  0.56535640  1
  Ni  Ni245  1  0.30411015  0.23881353  0.56535640  1
  Ni  Ni246  1  0.30411015  0.76118646  0.56535640  1
  Ni  Ni247  1  0.23881353  0.69588985  0.56535640  1
  Ni  Ni248  1  0.23881353  0.30411015  0.56535640  1
  Ni  Ni249  1  0.17351691  0.50000000  0.56535640  1
  Ni  Ni250  1  0.76118646  0.30411015  0.43464358  1
  Ni  Ni251  1  0.69588985  0.23881353  0.43464358  1
  Ni  Ni252  1  0.76118646  0.69588985  0.43464358  1
  Ni  Ni253  1  0.69588985  0.76118646  0.43464358  1
  Ni  Ni254  1  0.82648308  0.50000000  0.43464358  1
  Ni  Ni255  1  0.50000000  0.17351691  0.43464358  1
  Ni  Ni256  1  0.50000000  0.82648308  0.43464358  1
  Ni  Ni257  1  0.30411015  0.76118646  0.43464358  1
  Ni  Ni258  1  0.23881353  0.30411015  0.43464358  1
  Ni  Ni259  1  0.30411015  0.23881353  0.43464358  1
  Ni  Ni260  1  0.23881353  0.69588985  0.43464358  1
  Ni  Ni261  1  0.17351691  0.50000000  0.43464358  1
  Ni  Ni262  1  0.76118646  0.43470338  0.69606921  1
  Ni  Ni263  1  0.76118646  0.56529661  0.69606921  1
  Ni  Ni264  1  0.56529661  0.76118646  0.69606921  1
  Ni  Ni265  1  0.56529661  0.23881353  0.69606921  1
  Ni  Ni266  1  0.43470338  0.76118646  0.69606921  1
  Ni  Ni267  1  0.43470338  0.23881353  0.69606921  1
  Ni  Ni268  1  0.23881353  0.43470338  0.69606921  1
  Ni  Ni269  1  0.23881353  0.56529661  0.69606921  1
  Ni  Ni270  1  0.76118646  0.43470338  0.30393076  1
  Ni  Ni271  1  0.76118646  0.56529661  0.30393076  1
  Ni  Ni272  1  0.56529661  0.76118646  0.30393076  1
  Ni  Ni273  1  0.56529661  0.23881353  0.30393076  1
  Ni  Ni274  1  0.23881353  0.43470338  0.30393076  1
  Ni  Ni275  1  0.23881353  0.56529661  0.30393076  1
  Ni  Ni276  1  0.43470338  0.23881353  0.30393076  1
  Ni  Ni277  1  0.43470338  0.76118646  0.30393076  1
  Ni  Ni278  1  0.43470338  0.50000000  0.82678203  1
  Ni  Ni279  1  0.56529661  0.50000000  0.82678203  1
  Ni  Ni280  1  0.50000000  0.56529661  0.82678203  1
  Ni  Ni281  1  0.50000000  0.43470338  0.82678203  1
  Ni  Ni282  1  0.56529661  0.50000000  0.17321795  1
  Ni  Ni283  1  0.43470338  0.50000000  0.17321795  1
  Ni  Ni284  1  0.50000000  0.56529661  0.17321795  1
  Ni  Ni285  1  0.50000000  0.43470338  0.17321795  1
  Pt  Pt286  1  0.50000000  0.50000000  0.50000000  1
  Pt  Pt287  1  0.46735170  0.46735170  0.50000000  1
  Pt  Pt288  1  0.53264831  0.46735170  0.50000000  1
  Pt  Pt289  1  0.46735170  0.53264831  0.50000000  1
  Pt  Pt290  1  0.53264831  0.53264831  0.50000000  1
  Pt  Pt291  1  0.50000000  0.46735170  0.46617610  1
  Pt  Pt292  1  0.46735170  0.50000000  0.46617610  1
  Pt  Pt293  1  0.50000000  0.46735170  0.53382391  1
  Pt  Pt294  1  0.46735170  0.50000000  0.53382391  1
  Pt  Pt295  1  0.53264831  0.50000000  0.46617610  1
  Pt  Pt296  1  0.50000000  0.53264831  0.46617610  1
  Pt  Pt297  1  0.53264831  0.50000000  0.53382391  1
  Pt  Pt298  1  0.50000000  0.53264831  0.53382391  1
  Pt  Pt299  1  0.56529661  0.50000000  0.50000000  1
  Pt  Pt300  1  0.43470338  0.50000000  0.50000000  1
  Pt  Pt301  1  0.50000000  0.43470338  0.50000000  1
  Pt  Pt302  1  0.50000000  0.56529661  0.50000000  1
  Pt  Pt303  1  0.46735170  0.46735170  0.56535640  1
  Pt  Pt304  1  0.53264831  0.46735170  0.56535640  1
  Pt  Pt305  1  0.46735170  0.53264831  0.56535640  1
  Pt  Pt306  1  0.53264831  0.53264831  0.56535640  1
  Pt  Pt307  1  0.46735170  0.46735170  0.43464358  1
  Pt  Pt308  1  0.53264831  0.46735170  0.43464358  1
  Pt  Pt309  1  0.46735170  0.53264831  0.43464358  1
  Pt  Pt310  1  0.53264831  0.53264831  0.43464358  1
  Pt  Pt311  1  0.56529661  0.46735170  0.46617610  1
  Pt  Pt312  1  0.46735170  0.43470338  0.46617610  1
  Pt  Pt313  1  0.43470338  0.46735170  0.46617610  1
  Pt  Pt314  1  0.46735170  0.56529661  0.46617610  1
  Pt  Pt315  1  0.56529661  0.46735170  0.53382391  1
  Pt  Pt316  1  0.46735170  0.43470338  0.53382391  1
  Pt  Pt317  1  0.43470338  0.46735170  0.53382391  1
  Pt  Pt318  1  0.46735170  0.56529661  0.53382391  1
  Pt  Pt319  1  0.56529661  0.53264831  0.46617610  1
  Pt  Pt320  1  0.53264831  0.56529661  0.46617610  1
  Pt  Pt321  1  0.53264831  0.43470338  0.46617610  1
  Pt  Pt322  1  0.43470338  0.53264831  0.46617610  1
  Pt  Pt323  1  0.56529661  0.53264831  0.53382391  1
  Pt  Pt324  1  0.53264831  0.56529661  0.53382391  1
  Pt  Pt325  1  0.53264831  0.43470338  0.53382391  1
  Pt  Pt326  1  0.43470338  0.53264831  0.53382391  1
  Pt  Pt327  1  0.56529661  0.56529661  0.50000000  1
  Pt  Pt328  1  0.56529661  0.43470338  0.50000000  1
  Pt  Pt329  1  0.43470338  0.43470338  0.50000000  1
  Pt  Pt330  1  0.43470338  0.56529661  0.50000000  1
  Pt  Pt331  1  0.50000000  0.46735170  0.40311110  1
  Pt  Pt332  1  0.46735170  0.50000000  0.40311110  1
  Pt  Pt333  1  0.53264831  0.50000000  0.40311110  1
  Pt  Pt334  1  0.50000000  0.53264831  0.40311110  1
  Pt  Pt335  1  0.50000000  0.46735170  0.59688891  1
  Pt  Pt336  1  0.46735170  0.50000000  0.59688891  1
  Pt  Pt337  1  0.53264831  0.50000000  0.59688891  1
  Pt  Pt338  1  0.50000000  0.53264831  0.59688891  1
  Pt  Pt339  1  0.46735170  0.40205508  0.50000000  1
  Pt  Pt340  1  0.40205508  0.46735170  0.50000000  1
  Pt  Pt341  1  0.53264831  0.40205508  0.50000000  1
  Pt  Pt342  1  0.40205508  0.53264831  0.50000000  1
  Pt  Pt343  1  0.59794493  0.46735170  0.50000000  1
  Pt  Pt344  1  0.46735170  0.59794493  0.50000000  1
  Pt  Pt345  1  0.53264831  0.59794493  0.50000000  1
  Pt  Pt346  1  0.59794493  0.53264831  0.50000000  1
  Pt  Pt347  1  0.40205508  0.50000000  0.46617610  1
  Pt  Pt348  1  0.50000000  0.40205508  0.46617610  1
  Pt  Pt349  1  0.40205508  0.50000000  0.53382391  1
  Pt  Pt350  1  0.50000000  0.40205508  0.53382391  1
  Pt  Pt351  1  0.59794493  0.50000000  0.46617610  1
  Pt  Pt352  1  0.50000000  0.59794493  0.46617610  1
  Pt  Pt353  1  0.59794493  0.50000000  0.53382391  1
  Pt  Pt354  1  0.50000000  0.59794493  0.53382391  1
  Pt  Pt355  1  0.56529661  0.46735170  0.40311110  1
  Pt  Pt356  1  0.46735170  0.43470338  0.40311110  1
  Pt  Pt357  1  0.43470338  0.46735170  0.40311110  1
  Pt  Pt358  1  0.46735170  0.56529661  0.40311110  1
  Pt  Pt359  1  0.56529661  0.53264831  0.40311110  1
  Pt  Pt360  1  0.53264831  0.56529661  0.40311110  1
  Pt  Pt361  1  0.53264831  0.43470338  0.40311110  1
  Pt  Pt362  1  0.43470338  0.53264831  0.40311110  1
  Pt  Pt363  1  0.56529661  0.46735170  0.59688891  1
  Pt  Pt364  1  0.46735170  0.43470338  0.59688891  1
  Pt  Pt365  1  0.43470338  0.46735170  0.59688891  1
  Pt  Pt366  1  0.46735170  0.56529661  0.59688891  1
  Pt  Pt367  1  0.56529661  0.53264831  0.59688891  1
  Pt  Pt368  1  0.53264831  0.56529661  0.59688891  1
  Pt  Pt369  1  0.53264831  0.43470338  0.59688891  1
  Pt  Pt370  1  0.43470338  0.53264831  0.59688891  1
  Pt  Pt371  1  0.46735170  0.40205508  0.56535640  1
  Pt  Pt372  1  0.40205508  0.46735170  0.56535640  1
  Pt  Pt373  1  0.53264831  0.40205508  0.56535640  1
  Pt  Pt374  1  0.40205508  0.53264831  0.56535640  1
  Pt  Pt375  1  0.46735170  0.40205508  0.43464358  1
  Pt  Pt376  1  0.40205508  0.46735170  0.43464358  1
  Pt  Pt377  1  0.59794493  0.46735170  0.56535640  1
  Pt  Pt378  1  0.46735170  0.59794493  0.56535640  1
  Pt  Pt379  1  0.53264831  0.40205508  0.43464358  1
  Pt  Pt380  1  0.40205508  0.53264831  0.43464358  1
  Pt  Pt381  1  0.59794493  0.53264831  0.56535640  1
  Pt  Pt382  1  0.53264831  0.59794493  0.56535640  1
  Pt  Pt383  1  0.59794493  0.46735170  0.43464358  1
  Pt  Pt384  1  0.46735170  0.59794493  0.43464358  1
  Pt  Pt385  1  0.59794493  0.53264831  0.43464358  1
  Pt  Pt386  1  0.53264831  0.59794493  0.43464358  1
  Pt  Pt387  1  0.56529661  0.40205508  0.46617610  1
  Pt  Pt388  1  0.43470338  0.40205508  0.46617610  1
  Pt  Pt389  1  0.40205508  0.43470338  0.46617610  1
  Pt  Pt390  1  0.40205508  0.56529661  0.46617610  1
  Pt  Pt391  1  0.56529661  0.40205508  0.53382391  1
  Pt  Pt392  1  0.43470338  0.40205508  0.53382391  1
  Pt  Pt393  1  0.40205508  0.43470338  0.53382391  1
  Pt  Pt394  1  0.40205508  0.56529661  0.53382391  1
  Pt  Pt395  1  0.59794493  0.56529661  0.46617610  1
  Pt  Pt396  1  0.56529661  0.59794493  0.46617610  1
  Pt  Pt397  1  0.59794493  0.43470338  0.46617610  1
  Pt  Pt398  1  0.43470338  0.59794493  0.46617610  1
  Pt  Pt399  1  0.59794493  0.56529661  0.53382391  1
  Pt  Pt400  1  0.56529661  0.59794493  0.53382391  1
  Pt  Pt401  1  0.59794493  0.43470338  0.53382391  1
  Pt  Pt402  1  0.43470338  0.59794493  0.53382391  1
  Pt  Pt403  1  0.63059323  0.50000000  0.50000000  1
  Pt  Pt404  1  0.50000000  0.63059323  0.50000000  1
  Pt  Pt405  1  0.36940676  0.50000000  0.50000000  1
  Pt  Pt406  1  0.50000000  0.36940676  0.50000000  1
  Pt  Pt407  1  0.50000000  0.50000000  0.63071281  1
  Pt  Pt408  1  0.50000000  0.50000000  0.36928718  1
  Pt  Pt409  1  0.50000000  0.40205508  0.40311110  1
  Pt  Pt410  1  0.40205508  0.50000000  0.40311110  1
  Pt  Pt411  1  0.50000000  0.40205508  0.59688891  1
  Pt  Pt412  1  0.40205508  0.50000000  0.59688891  1
  Pt  Pt413  1  0.59794493  0.50000000  0.40311110  1
  Pt  Pt414  1  0.50000000  0.59794493  0.40311110  1
  Pt  Pt415  1  0.59794493  0.50000000  0.59688891  1
  Pt  Pt416  1  0.50000000  0.59794493  0.59688891  1
  Pt  Pt417  1  0.40205508  0.40205508  0.50000000  1
  Pt  Pt418  1  0.59794493  0.40205508  0.50000000  1
  Pt  Pt419  1  0.40205508  0.59794493  0.50000000  1
  Pt  Pt420  1  0.59794493  0.59794493  0.50000000  1
  Pt  Pt421  1  0.46735170  0.46735170  0.36928718  1
  Pt  Pt422  1  0.46735170  0.46735170  0.63071281  1
  Pt  Pt423  1  0.53264831  0.46735170  0.63071281  1
  Pt  Pt424  1  0.53264831  0.46735170  0.36928718  1
  Pt  Pt425  1  0.46735170  0.53264831  0.63071281  1
  Pt  Pt426  1  0.46735170  0.53264831  0.36928718  1
  Pt  Pt427  1  0.53264831  0.53264831  0.36928718  1
  Pt  Pt428  1  0.53264831  0.53264831  0.63071281  1
  Pt  Pt429  1  0.63059323  0.46735170  0.46617610  1
  Pt  Pt430  1  0.46735170  0.36940676  0.46617610  1
  Pt  Pt431  1  0.36940676  0.46735170  0.46617610  1
  Pt  Pt432  1  0.46735170  0.63059323  0.46617610  1
  Pt  Pt433  1  0.63059323  0.46735170  0.53382391  1
  Pt  Pt434  1  0.46735170  0.36940676  0.53382391  1
  Pt  Pt435  1  0.36940676  0.46735170  0.53382391  1
  Pt  Pt436  1  0.46735170  0.63059323  0.53382391  1
  Pt  Pt437  1  0.63059323  0.53264831  0.46617610  1
  Pt  Pt438  1  0.53264831  0.63059323  0.46617610  1
  Pt  Pt439  1  0.53264831  0.36940676  0.46617610  1
  Pt  Pt440  1  0.36940676  0.53264831  0.46617610  1
  Pt  Pt441  1  0.63059323  0.53264831  0.53382391  1
  Pt  Pt442  1  0.53264831  0.63059323  0.53382391  1
  Pt  Pt443  1  0.53264831  0.36940676  0.53382391  1
  Pt  Pt444  1  0.36940676  0.53264831  0.53382391  1
  Pt  Pt445  1  0.63059323  0.56529661  0.50000000  1
  Pt  Pt446  1  0.56529661  0.36940676  0.50000000  1
  Pt  Pt447  1  0.56529661  0.63059323  0.50000000  1
  Pt  Pt448  1  0.63059323  0.43470338  0.50000000  1
  Pt  Pt449  1  0.43470338  0.36940676  0.50000000  1
  Pt  Pt450  1  0.43470338  0.63059323  0.50000000  1
  Pt  Pt451  1  0.36940676  0.43470338  0.50000000  1
  Pt  Pt452  1  0.36940676  0.56529661  0.50000000  1
  Pt  Pt453  1  0.56529661  0.50000000  0.63071281  1
  Pt  Pt454  1  0.56529661  0.50000000  0.36928718  1
  Pt  Pt455  1  0.50000000  0.43470338  0.36928718  1
  Pt  Pt456  1  0.50000000  0.43470338  0.63071281  1
  Pt  Pt457  1  0.50000000  0.56529661  0.63071281  1
  Pt  Pt458  1  0.43470338  0.50000000  0.36928718  1
  Pt  Pt459  1  0.50000000  0.56529661  0.36928718  1
  Pt  Pt460  1  0.43470338  0.50000000  0.63071281  1
  Pt  Pt461  1  0.56529661  0.40205508  0.40311110  1
  Pt  Pt462  1  0.43470338  0.40205508  0.40311110  1
  Pt  Pt463  1  0.40205508  0.43470338  0.40311110  1
  Pt  Pt464  1  0.40205508  0.56529661  0.40311110  1
  Pt  Pt465  1  0.56529661  0.40205508  0.59688891  1
  Pt  Pt466  1  0.43470338  0.40205508  0.59688891  1
  Pt  Pt467  1  0.40205508  0.43470338  0.59688891  1
  Pt  Pt468  1  0.40205508  0.56529661  0.59688891  1
  Pt  Pt469  1  0.59794493  0.56529661  0.40311110  1
  Pt  Pt470  1  0.59794493  0.43470338  0.40311110  1
  Pt  Pt471  1  0.56529661  0.59794493  0.40311110  1
  Pt  Pt472  1  0.43470338  0.59794493  0.40311110  1
  Pt  Pt473  1  0.59794493  0.56529661  0.59688891  1
  Pt  Pt474  1  0.56529661  0.59794493  0.59688891  1
  Pt  Pt475  1  0.59794493  0.43470338  0.59688891  1
  Pt  Pt476  1  0.43470338  0.59794493  0.59688891  1
  Pt  Pt477  1  0.40205508  0.40205508  0.56535640  1
  Pt  Pt478  1  0.40205508  0.40205508  0.43464358  1
  Pt  Pt479  1  0.59794493  0.40205508  0.56535640  1
  Pt  Pt480  1  0.40205508  0.59794493  0.56535640  1
  Pt  Pt481  1  0.59794493  0.40205508  0.43464358  1
  Pt  Pt482  1  0.40205508  0.59794493  0.43464358  1
  Pt  Pt483  1  0.59794493  0.59794493  0.56535640  1
  Pt  Pt484  1  0.59794493  0.59794493  0.43464358  1
  Pt  Pt485  1  0.56529661  0.56529661  0.36928718  1
  Pt  Pt486  1  0.56529661  0.56529661  0.63071281  1
  Pt  Pt487  1  0.56529661  0.43470338  0.36928718  1
  Pt  Pt488  1  0.56529661  0.43470338  0.63071281  1
  Pt  Pt489  1  0.43470338  0.43470338  0.36928718  1
  Pt  Pt490  1  0.43470338  0.43470338  0.63071281  1
  Pt  Pt491  1  0.43470338  0.56529661  0.63071281  1
  Pt  Pt492  1  0.43470338  0.56529661  0.36928718  1
  Pt  Pt493  1  0.63059323  0.46735170  0.40311110  1
  Pt  Pt494  1  0.46735170  0.36940676  0.40311110  1
  Pt  Pt495  1  0.46735170  0.63059323  0.40311110  1
  Pt  Pt496  1  0.36940676  0.46735170  0.40311110  1
  Pt  Pt497  1  0.53264831  0.63059323  0.40311110  1
  Pt  Pt498  1  0.63059323  0.53264831  0.40311110  1
  Pt  Pt499  1  0.53264831  0.36940676  0.40311110  1
  Pt  Pt500  1  0.36940676  0.53264831  0.40311110  1
  Pt  Pt501  1  0.63059323  0.46735170  0.59688891  1
  Pt  Pt502  1  0.46735170  0.36940676  0.59688891  1
  Pt  Pt503  1  0.46735170  0.63059323  0.59688891  1
  Pt  Pt504  1  0.36940676  0.46735170  0.59688891  1
  Pt  Pt505  1  0.63059323  0.53264831  0.59688891  1
  Pt  Pt506  1  0.53264831  0.63059323  0.59688891  1
  Pt  Pt507  1  0.53264831  0.36940676  0.59688891  1
  Pt  Pt508  1  0.36940676  0.53264831  0.59688891  1
  Pt  Pt509  1  0.46735170  0.33675846  0.50000000  1
  Pt  Pt510  1  0.33675846  0.46735170  0.50000000  1
  Pt  Pt511  1  0.53264831  0.33675846  0.50000000  1
  Pt  Pt512  1  0.33675846  0.53264831  0.50000000  1
  Pt  Pt513  1  0.66324155  0.46735170  0.50000000  1
  Pt  Pt514  1  0.46735170  0.66324155  0.50000000  1
  Pt  Pt515  1  0.66324155  0.53264831  0.50000000  1
  Pt  Pt516  1  0.53264831  0.66324155  0.50000000  1
  Pt  Pt517  1  0.46735170  0.40205508  0.36928718  1
  Pt  Pt518  1  0.46735170  0.40205508  0.63071281  1
  Pt  Pt519  1  0.40205508  0.46735170  0.63071281  1
  Pt  Pt520  1  0.40205508  0.46735170  0.36928718  1
  Pt  Pt521  1  0.53264831  0.40205508  0.63071281  1
  Pt  Pt522  1  0.53264831  0.40205508  0.36928718  1
  Pt  Pt523  1  0.40205508  0.53264831  0.36928718  1
  Pt  Pt524  1  0.40205508  0.53264831  0.63071281  1
  Pt  Pt525  1  0.59794493  0.46735170  0.36928718  1
  Pt  Pt526  1  0.59794493  0.46735170  0.63071281  1
  Pt  Pt527  1  0.46735170  0.59794493  0.36928718  1
  Pt  Pt528  1  0.46735170  0.59794493  0.63071281  1
  Pt  Pt529  1  0.53264831  0.59794493  0.36928718  1
  Pt  Pt530  1  0.59794493  0.53264831  0.63071281  1
  Pt  Pt531  1  0.59794493  0.53264831  0.36928718  1
  Pt  Pt532  1  0.53264831  0.59794493  0.63071281  1
  Pt  Pt533  1  0.50000000  0.33675846  0.46617610  1
  Pt  Pt534  1  0.33675846  0.50000000  0.46617610  1
  Pt  Pt535  1  0.50000000  0.33675846  0.53382391  1
  Pt  Pt536  1  0.33675846  0.50000000  0.53382391  1
  Pt  Pt537  1  0.63059323  0.40205508  0.46617610  1
  Pt  Pt538  1  0.40205508  0.36940676  0.46617610  1
  Pt  Pt539  1  0.36940676  0.40205508  0.46617610  1
  Pt  Pt540  1  0.40205508  0.63059323  0.46617610  1
  Pt  Pt541  1  0.63059323  0.40205508  0.53382391  1
  Pt  Pt542  1  0.36940676  0.40205508  0.53382391  1
  Pt  Pt543  1  0.40205508  0.36940676  0.53382391  1
  Pt  Pt544  1  0.40205508  0.63059323  0.53382391  1
  Pt  Pt545  1  0.59794493  0.63059323  0.46617610  1
  Pt  Pt546  1  0.63059323  0.59794493  0.46617610  1
  Pt  Pt547  1  0.59794493  0.36940676  0.46617610  1
  Pt  Pt548  1  0.36940676  0.59794493  0.46617610  1
  Pt  Pt549  1  0.59794493  0.63059323  0.53382391  1
  Pt  Pt550  1  0.63059323  0.59794493  0.53382391  1
  Pt  Pt551  1  0.59794493  0.36940676  0.53382391  1
  Pt  Pt552  1  0.36940676  0.59794493  0.53382391  1
  Pt  Pt553  1  0.66324155  0.50000000  0.46617610  1
  Pt  Pt554  1  0.50000000  0.66324155  0.46617610  1
  Pt  Pt555  1  0.66324155  0.50000000  0.53382391  1
  Pt  Pt556  1  0.50000000  0.66324155  0.53382391  1
  Pt  Pt557  1  0.46735170  0.50000000  0.33546328  1
  Pt  Pt558  1  0.50000000  0.46735170  0.33546328  1
  Pt  Pt559  1  0.53264831  0.50000000  0.33546328  1
  Pt  Pt560  1  0.50000000  0.53264831  0.33546328  1
  Pt  Pt561  1  0.50000000  0.46735170  0.66453673  1
  Pt  Pt562  1  0.46735170  0.50000000  0.66453673  1
  Pt  Pt563  1  0.50000000  0.53264831  0.66453673  1
  Pt  Pt564  1  0.53264831  0.50000000  0.66453673  1
  Pt  Pt565  1  0.46735170  0.33675846  0.56535640  1
  Pt  Pt566  1  0.33675846  0.46735170  0.56535640  1
  Pt  Pt567  1  0.53264831  0.33675846  0.56535640  1
  Pt  Pt568  1  0.33675846  0.53264831  0.56535640  1
  Pt  Pt569  1  0.46735170  0.33675846  0.43464358  1
  Pt  Pt570  1  0.33675846  0.46735170  0.43464358  1
  Pt  Pt571  1  0.53264831  0.33675846  0.43464358  1
  Pt  Pt572  1  0.33675846  0.53264831  0.43464358  1
  Pt  Pt573  1  0.66324155  0.46735170  0.56535640  1
  Pt  Pt574  1  0.46735170  0.66324155  0.56535640  1
  Pt  Pt575  1  0.66324155  0.53264831  0.56535640  1
  Pt  Pt576  1  0.53264831  0.66324155  0.56535640  1
  Pt  Pt577  1  0.66324155  0.46735170  0.43464358  1
  Pt  Pt578  1  0.46735170  0.66324155  0.43464358  1
  Pt  Pt579  1  0.66324155  0.53264831  0.43464358  1
  Pt  Pt580  1  0.53264831  0.66324155  0.43464358  1
  Pt  Pt581  1  0.56529661  0.33675846  0.46617610  1
  Pt  Pt582  1  0.43470338  0.33675846  0.46617610  1
  Pt  Pt583  1  0.33675846  0.43470338  0.46617610  1
  Pt  Pt584  1  0.33675846  0.56529661  0.46617610  1
  Pt  Pt585  1  0.56529661  0.33675846  0.53382391  1
  Pt  Pt586  1  0.43470338  0.33675846  0.53382391  1
  Pt  Pt587  1  0.33675846  0.56529661  0.53382391  1
  Pt  Pt588  1  0.33675846  0.43470338  0.53382391  1
  Pt  Pt589  1  0.66324155  0.43470338  0.46617610  1
  Pt  Pt590  1  0.66324155  0.56529661  0.46617610  1
  Pt  Pt591  1  0.56529661  0.66324155  0.46617610  1
  Pt  Pt592  1  0.43470338  0.66324155  0.46617610  1
  Pt  Pt593  1  0.56529661  0.66324155  0.53382391  1
  Pt  Pt594  1  0.66324155  0.43470338  0.53382391  1
  Pt  Pt595  1  0.66324155  0.56529661  0.53382391  1
  Pt  Pt596  1  0.43470338  0.66324155  0.53382391  1
  Pt  Pt597  1  0.56529661  0.46735170  0.33546328  1
  Pt  Pt598  1  0.46735170  0.43470338  0.33546328  1
  Pt  Pt599  1  0.43470338  0.46735170  0.33546328  1
  Pt  Pt600  1  0.46735170  0.56529661  0.33546328  1
  Pt  Pt601  1  0.56529661  0.53264831  0.33546328  1
  Pt  Pt602  1  0.53264831  0.56529661  0.33546328  1
  Pt  Pt603  1  0.53264831  0.43470338  0.33546328  1
  Pt  Pt604  1  0.43470338  0.53264831  0.33546328  1
  Pt  Pt605  1  0.56529661  0.46735170  0.66453673  1
  Pt  Pt606  1  0.46735170  0.43470338  0.66453673  1
  Pt  Pt607  1  0.46735170  0.56529661  0.66453673  1
  Pt  Pt608  1  0.43470338  0.46735170  0.66453673  1
  Pt  Pt609  1  0.56529661  0.53264831  0.66453673  1
  Pt  Pt610  1  0.53264831  0.43470338  0.66453673  1
  Pt  Pt611  1  0.53264831  0.56529661  0.66453673  1
  Pt  Pt612  1  0.43470338  0.53264831  0.66453673  1
  Pt  Pt613  1  0.63059323  0.63059323  0.50000000  1
  Pt  Pt614  1  0.63059323  0.36940676  0.50000000  1
  Pt  Pt615  1  0.36940676  0.36940676  0.50000000  1
  Pt  Pt616  1  0.36940676  0.63059323  0.50000000  1
  Pt  Pt617  1  0.63059323  0.50000000  0.36928718  1
  Pt  Pt618  1  0.63059323  0.50000000  0.63071281  1
  Pt  Pt619  1  0.50000000  0.36940676  0.36928718  1
  Pt  Pt620  1  0.36940676  0.50000000  0.63071281  1
  Pt  Pt621  1  0.50000000  0.36940676  0.63071281  1
  Pt  Pt622  1  0.36940676  0.50000000  0.36928718  1
  Pt  Pt623  1  0.50000000  0.63059323  0.63071281  1
  Pt  Pt624  1  0.50000000  0.63059323  0.36928718  1
  Pt  Pt625  1  0.50000000  0.33675846  0.40311110  1
  Pt  Pt626  1  0.33675846  0.50000000  0.40311110  1
  Pt  Pt627  1  0.63059323  0.40205508  0.40311110  1
  Pt  Pt628  1  0.36940676  0.40205508  0.40311110  1
  Pt  Pt629  1  0.40205508  0.36940676  0.40311110  1
  Pt  Pt630  1  0.40205508  0.63059323  0.40311110  1
  Pt  Pt631  1  0.50000000  0.33675846  0.59688891  1
  Pt  Pt632  1  0.33675846  0.50000000  0.59688891  1
  Pt  Pt633  1  0.63059323  0.40205508  0.59688891  1
  Pt  Pt634  1  0.40205508  0.36940676  0.59688891  1
  Pt  Pt635  1  0.36940676  0.40205508  0.59688891  1
  Pt  Pt636  1  0.40205508  0.63059323  0.59688891  1
  Pt  Pt637  1  0.59794493  0.63059323  0.40311110  1
  Pt  Pt638  1  0.59794493  0.36940676  0.40311110  1
  Pt  Pt639  1  0.63059323  0.59794493  0.40311110  1
  Pt  Pt640  1  0.36940676  0.59794493  0.40311110  1
  Pt  Pt641  1  0.66324155  0.50000000  0.40311110  1
  Pt  Pt642  1  0.50000000  0.66324155  0.40311110  1
  Pt  Pt643  1  0.59794493  0.63059323  0.59688891  1
  Pt  Pt644  1  0.59794493  0.36940676  0.59688891  1
  Pt  Pt645  1  0.63059323  0.59794493  0.59688891  1
  Pt  Pt646  1  0.36940676  0.59794493  0.59688891  1
  Pt  Pt647  1  0.66324155  0.50000000  0.59688891  1
  Pt  Pt648  1  0.50000000  0.66324155  0.59688891  1
  Pt  Pt649  1  0.40205508  0.33675846  0.50000000  1
  Pt  Pt650  1  0.33675846  0.40205508  0.50000000  1
  Pt  Pt651  1  0.59794493  0.33675846  0.50000000  1
  Pt  Pt652  1  0.33675846  0.59794493  0.50000000  1
  Pt  Pt653  1  0.66324155  0.40205508  0.50000000  1
  Pt  Pt654  1  0.40205508  0.66324155  0.50000000  1
  Pt  Pt655  1  0.59794493  0.66324155  0.50000000  1
  Pt  Pt656  1  0.66324155  0.59794493  0.50000000  1
  Pt  Pt657  1  0.40205508  0.40205508  0.36928718  1
  Pt  Pt658  1  0.40205508  0.40205508  0.63071281  1
  Pt  Pt659  1  0.59794493  0.40205508  0.63071281  1
  Pt  Pt660  1  0.59794493  0.40205508  0.36928718  1
  Pt  Pt661  1  0.40205508  0.59794493  0.63071281  1
  Pt  Pt662  1  0.40205508  0.59794493  0.36928718  1
  Pt  Pt663  1  0.59794493  0.59794493  0.63071281  1
  Pt  Pt664  1  0.59794493  0.59794493  0.36928718  1
  Pt  Pt665  1  0.40205508  0.50000000  0.33546328  1
  Pt  Pt666  1  0.50000000  0.40205508  0.33546328  1
  Pt  Pt667  1  0.59794493  0.50000000  0.33546328  1
  Pt  Pt668  1  0.50000000  0.59794493  0.33546328  1
  Pt  Pt669  1  0.40205508  0.50000000  0.66453673  1
  Pt  Pt670  1  0.50000000  0.40205508  0.66453673  1
  Pt  Pt671  1  0.59794493  0.50000000  0.66453673  1
  Pt  Pt672  1  0.50000000  0.59794493  0.66453673  1
  Pt  Pt673  1  0.69588985  0.50000000  0.50000000  1
  Pt  Pt674  1  0.50000000  0.30411015  0.50000000  1
  Pt  Pt675  1  0.50000000  0.69588985  0.50000000  1
  Pt  Pt676  1  0.30411015  0.50000000  0.50000000  1
  Pt  Pt677  1  0.56529661  0.63059323  0.36928718  1
  Pt  Pt678  1  0.63059323  0.43470338  0.63071281  1
  Pt  Pt679  1  0.63059323  0.43470338  0.36928718  1
  Pt  Pt680  1  0.56529661  0.63059323  0.63071281  1
  Pt  Pt681  1  0.63059323  0.56529661  0.63071281  1
  Pt  Pt682  1  0.63059323  0.56529661  0.36928718  1
  Pt  Pt683  1  0.56529661  0.36940676  0.36928718  1
  Pt  Pt684  1  0.56529661  0.36940676  0.63071281  1
  Pt  Pt685  1  0.36940676  0.43470338  0.63071281  1
  Pt  Pt686  1  0.36940676  0.43470338  0.36928718  1
  Pt  Pt687  1  0.43470338  0.63059323  0.36928718  1
  Pt  Pt688  1  0.43470338  0.36940676  0.63071281  1
  Pt  Pt689  1  0.43470338  0.36940676  0.36928718  1
  Pt  Pt690  1  0.43470338  0.63059323  0.63071281  1
  Pt  Pt691  1  0.36940676  0.56529661  0.63071281  1
  Pt  Pt692  1  0.36940676  0.56529661  0.36928718  1
  Pt  Pt693  1  0.56529661  0.33675846  0.40311110  1
  Pt  Pt694  1  0.43470338  0.33675846  0.40311110  1
  Pt  Pt695  1  0.33675846  0.56529661  0.40311110  1
  Pt  Pt696  1  0.33675846  0.43470338  0.40311110  1
  Pt  Pt697  1  0.56529661  0.33675846  0.59688891  1
  Pt  Pt698  1  0.43470338  0.33675846  0.59688891  1
  Pt  Pt699  1  0.33675846  0.43470338  0.59688891  1
  Pt  Pt700  1  0.33675846  0.56529661  0.59688891  1
  Pt  Pt701  1  0.66324155  0.56529661  0.40311110  1
  Pt  Pt702  1  0.66324155  0.43470338  0.40311110  1
  Pt  Pt703  1  0.56529661  0.66324155  0.40311110  1
  Pt  Pt704  1  0.43470338  0.66324155  0.40311110  1
  Pt  Pt705  1  0.56529661  0.66324155  0.59688891  1
  Pt  Pt706  1  0.66324155  0.56529661  0.59688891  1
  Pt  Pt707  1  0.66324155  0.43470338  0.59688891  1
  Pt  Pt708  1  0.43470338  0.66324155  0.59688891  1
  Pt  Pt709  1  0.40205508  0.33675846  0.56535640  1
  Pt  Pt710  1  0.33675846  0.40205508  0.56535640  1
  Pt  Pt711  1  0.40205508  0.33675846  0.43464358  1
  Pt  Pt712  1  0.33675846  0.40205508  0.43464358  1
  Pt  Pt713  1  0.59794493  0.33675846  0.56535640  1
  Pt  Pt714  1  0.33675846  0.59794493  0.56535640  1
  Pt  Pt715  1  0.66324155  0.40205508  0.56535640  1
  Pt  Pt716  1  0.40205508  0.66324155  0.56535640  1
  Pt  Pt717  1  0.59794493  0.33675846  0.43464358  1
  Pt  Pt718  1  0.33675846  0.59794493  0.43464358  1
  Pt  Pt719  1  0.66324155  0.40205508  0.43464358  1
  Pt  Pt720  1  0.40205508  0.66324155  0.43464358  1
  Pt  Pt721  1  0.59794493  0.66324155  0.56535640  1
  Pt  Pt722  1  0.66324155  0.59794493  0.56535640  1
  Pt  Pt723  1  0.59794493  0.66324155  0.43464358  1
  Pt  Pt724  1  0.66324155  0.59794493  0.43464358  1
  Pt  Pt725  1  0.46735170  0.46735170  0.69606921  1
  Pt  Pt726  1  0.53264831  0.46735170  0.69606921  1
  Pt  Pt727  1  0.46735170  0.53264831  0.69606921  1
  Pt  Pt728  1  0.53264831  0.53264831  0.69606921  1
  Pt  Pt729  1  0.46735170  0.46735170  0.30393076  1
  Pt  Pt730  1  0.53264831  0.46735170  0.30393076  1
  Pt  Pt731  1  0.46735170  0.53264831  0.30393076  1
  Pt  Pt732  1  0.53264831  0.53264831  0.30393076  1
  Pt  Pt733  1  0.69588985  0.46735170  0.46617610  1
  Pt  Pt734  1  0.46735170  0.30411015  0.46617610  1
  Pt  Pt735  1  0.46735170  0.69588985  0.46617610  1
  Pt  Pt736  1  0.30411015  0.46735170  0.46617610  1
  Pt  Pt737  1  0.69588985  0.46735170  0.53382391  1
  Pt  Pt738  1  0.46735170  0.30411015  0.53382391  1
  Pt  Pt739  1  0.46735170  0.69588985  0.53382391  1
  Pt  Pt740  1  0.30411015  0.46735170  0.53382391  1
  Pt  Pt741  1  0.69588985  0.53264831  0.46617610  1
  Pt  Pt742  1  0.53264831  0.69588985  0.46617610  1
  Pt  Pt743  1  0.53264831  0.30411015  0.46617610  1
  Pt  Pt744  1  0.30411015  0.53264831  0.46617610  1
  Pt  Pt745  1  0.69588985  0.53264831  0.53382391  1
  Pt  Pt746  1  0.53264831  0.69588985  0.53382391  1
  Pt  Pt747  1  0.53264831  0.30411015  0.53382391  1
  Pt  Pt748  1  0.30411015  0.53264831  0.53382391  1
  Pt  Pt749  1  0.56529661  0.40205508  0.33546328  1
  Pt  Pt750  1  0.40205508  0.43470338  0.33546328  1
  Pt  Pt751  1  0.43470338  0.40205508  0.33546328  1
  Pt  Pt752  1  0.40205508  0.56529661  0.33546328  1
  Pt  Pt753  1  0.59794493  0.56529661  0.33546328  1
  Pt  Pt754  1  0.56529661  0.59794493  0.33546328  1
  Pt  Pt755  1  0.59794493  0.43470338  0.33546328  1
  Pt  Pt756  1  0.43470338  0.59794493  0.33546328  1
  Pt  Pt757  1  0.56529661  0.40205508  0.66453673  1
  Pt  Pt758  1  0.40205508  0.43470338  0.66453673  1
  Pt  Pt759  1  0.43470338  0.40205508  0.66453673  1
  Pt  Pt760  1  0.40205508  0.56529661  0.66453673  1
  Pt  Pt761  1  0.59794493  0.56529661  0.66453673  1
  Pt  Pt762  1  0.56529661  0.59794493  0.66453673  1
  Pt  Pt763  1  0.59794493  0.43470338  0.66453673  1
  Pt  Pt764  1  0.43470338  0.59794493  0.66453673  1
  Pt  Pt765  1  0.56529661  0.69588985  0.50000000  1
  Pt  Pt766  1  0.69588985  0.56529661  0.50000000  1
  Pt  Pt767  1  0.69588985  0.43470338  0.50000000  1
  Pt  Pt768  1  0.56529661  0.30411015  0.50000000  1
  Pt  Pt769  1  0.43470338  0.30411015  0.50000000  1
  Pt  Pt770  1  0.43470338  0.69588985  0.50000000  1
  Pt  Pt771  1  0.30411015  0.56529661  0.50000000  1
  Pt  Pt772  1  0.30411015  0.43470338  0.50000000  1
  Pt  Pt773  1  0.46735170  0.33675846  0.36928718  1
  Pt  Pt774  1  0.46735170  0.33675846  0.63071281  1
  Pt  Pt775  1  0.33675846  0.46735170  0.36928718  1
  Pt  Pt776  1  0.33675846  0.46735170  0.63071281  1
  Pt  Pt777  1  0.53264831  0.33675846  0.63071281  1
  Pt  Pt778  1  0.53264831  0.33675846  0.36928718  1
  Pt  Pt779  1  0.33675846  0.53264831  0.36928718  1
  Pt  Pt780  1  0.33675846  0.53264831  0.63071281  1
  Pt  Pt781  1  0.66324155  0.46735170  0.36928718  1
  Pt  Pt782  1  0.66324155  0.46735170  0.63071281  1
  Pt  Pt783  1  0.46735170  0.66324155  0.63071281  1
  Pt  Pt784  1  0.46735170  0.66324155  0.36928718  1
  Pt  Pt785  1  0.66324155  0.53264831  0.63071281  1
  Pt  Pt786  1  0.66324155  0.53264831  0.36928718  1
  Pt  Pt787  1  0.53264831  0.66324155  0.36928718  1
  Pt  Pt788  1  0.53264831  0.66324155  0.63071281  1
  Pt  Pt789  1  0.63059323  0.33675846  0.46617610  1
  Pt  Pt790  1  0.36940676  0.33675846  0.46617610  1
  Pt  Pt791  1  0.33675846  0.63059323  0.46617610  1
  Pt  Pt792  1  0.33675846  0.36940676  0.46617610  1
  Pt  Pt793  1  0.63059323  0.33675846  0.53382391  1
  Pt  Pt794  1  0.36940676  0.33675846  0.53382391  1
  Pt  Pt795  1  0.33675846  0.63059323  0.53382391  1
  Pt  Pt796  1  0.33675846  0.36940676  0.53382391  1
  Pt  Pt797  1  0.66324155  0.63059323  0.46617610  1
  Pt  Pt798  1  0.66324155  0.36940676  0.46617610  1
  Pt  Pt799  1  0.63059323  0.66324155  0.46617610  1
  Pt  Pt800  1  0.36940676  0.66324155  0.46617610  1
  Pt  Pt801  1  0.63059323  0.66324155  0.53382391  1
  Pt  Pt802  1  0.66324155  0.63059323  0.53382391  1
  Pt  Pt803  1  0.66324155  0.36940676  0.53382391  1
  Pt  Pt804  1  0.36940676  0.66324155  0.53382391  1
  Pt  Pt805  1  0.63059323  0.46735170  0.33546328  1
  Pt  Pt806  1  0.46735170  0.36940676  0.33546328  1
  Pt  Pt807  1  0.36940676  0.46735170  0.33546328  1
  Pt  Pt808  1  0.46735170  0.63059323  0.33546328  1
  Pt  Pt809  1  0.63059323  0.53264831  0.33546328  1
  Pt  Pt810  1  0.53264831  0.63059323  0.33546328  1
  Pt  Pt811  1  0.53264831  0.36940676  0.33546328  1
  Pt  Pt812  1  0.36940676  0.53264831  0.33546328  1
  Pt  Pt813  1  0.63059323  0.46735170  0.66453673  1
  Pt  Pt814  1  0.46735170  0.36940676  0.66453673  1
  Pt  Pt815  1  0.36940676  0.46735170  0.66453673  1
  Pt  Pt816  1  0.46735170  0.63059323  0.66453673  1
  Pt  Pt817  1  0.63059323  0.53264831  0.66453673  1
  Pt  Pt818  1  0.53264831  0.63059323  0.66453673  1
  Pt  Pt819  1  0.53264831  0.36940676  0.66453673  1
  Pt  Pt820  1  0.36940676  0.53264831  0.66453673  1
  Pt  Pt821  1  0.69588985  0.46735170  0.40311110  1
  Pt  Pt822  1  0.46735170  0.30411015  0.40311110  1
  Pt  Pt823  1  0.46735170  0.69588985  0.40311110  1
  Pt  Pt824  1  0.30411015  0.46735170  0.40311110  1
  Pt  Pt825  1  0.69588985  0.53264831  0.40311110  1
  Pt  Pt826  1  0.53264831  0.69588985  0.40311110  1
  Pt  Pt827  1  0.53264831  0.30411015  0.40311110  1
  Pt  Pt828  1  0.30411015  0.53264831  0.40311110  1
  Pt  Pt829  1  0.69588985  0.46735170  0.59688891  1
  Pt  Pt830  1  0.46735170  0.30411015  0.59688891  1
  Pt  Pt831  1  0.46735170  0.69588985  0.59688891  1
  Pt  Pt832  1  0.30411015  0.46735170  0.59688891  1
  Pt  Pt833  1  0.69588985  0.53264831  0.59688891  1
  Pt  Pt834  1  0.53264831  0.30411015  0.59688891  1
  Pt  Pt835  1  0.53264831  0.69588985  0.59688891  1
  Pt  Pt836  1  0.30411015  0.53264831  0.59688891  1
  Pt  Pt837  1  0.46735170  0.40205508  0.69606921  1
  Pt  Pt838  1  0.40205508  0.46735170  0.69606921  1
  Pt  Pt839  1  0.53264831  0.40205508  0.69606921  1
  Pt  Pt840  1  0.40205508  0.53264831  0.69606921  1
  Pt  Pt841  1  0.59794493  0.46735170  0.69606921  1
  Pt  Pt842  1  0.46735170  0.59794493  0.69606921  1
  Pt  Pt843  1  0.59794493  0.53264831  0.69606921  1
  Pt  Pt844  1  0.53264831  0.59794493  0.69606921  1
  Pt  Pt845  1  0.46735170  0.40205508  0.30393076  1
  Pt  Pt846  1  0.40205508  0.46735170  0.30393076  1
  Pt  Pt847  1  0.53264831  0.40205508  0.30393076  1
  Pt  Pt848  1  0.40205508  0.53264831  0.30393076  1
  Pt  Pt849  1  0.59794493  0.46735170  0.30393076  1
  Pt  Pt850  1  0.46735170  0.59794493  0.30393076  1
  Pt  Pt851  1  0.53264831  0.59794493  0.30393076  1
  Pt  Pt852  1  0.59794493  0.53264831  0.30393076  1
  Pt  Pt853  1  0.69588985  0.40205508  0.46617610  1
  Pt  Pt854  1  0.40205508  0.30411015  0.46617610  1
  Pt  Pt855  1  0.40205508  0.69588985  0.46617610  1
  Pt  Pt856  1  0.30411015  0.40205508  0.46617610  1
  Pt  Pt857  1  0.69588985  0.40205508  0.53382391  1
  Pt  Pt858  1  0.40205508  0.30411015  0.53382391  1
  Pt  Pt859  1  0.30411015  0.40205508  0.53382391  1
  Pt  Pt860  1  0.40205508  0.69588985  0.53382391  1
  Pt  Pt861  1  0.59794493  0.69588985  0.46617610  1
  Pt  Pt862  1  0.69588985  0.59794493  0.46617610  1
  Pt  Pt863  1  0.59794493  0.30411015  0.46617610  1
  Pt  Pt864  1  0.30411015  0.59794493  0.46617610  1
  Pt  Pt865  1  0.59794493  0.69588985  0.53382391  1
  Pt  Pt866  1  0.69588985  0.59794493  0.53382391  1
  Pt  Pt867  1  0.59794493  0.30411015  0.53382391  1
  Pt  Pt868  1  0.30411015  0.59794493  0.53382391  1
  Pt  Pt869  1  0.63059323  0.63059323  0.36928718  1
  Pt  Pt870  1  0.63059323  0.63059323  0.63071281  1
  Pt  Pt871  1  0.63059323  0.36940676  0.36928718  1
  Pt  Pt872  1  0.63059323  0.36940676  0.63071281  1
  Pt  Pt873  1  0.36940676  0.63059323  0.63071281  1
  Pt  Pt874  1  0.36940676  0.63059323  0.36928718  1
  Pt  Pt875  1  0.36940676  0.36940676  0.63071281  1
  Pt  Pt876  1  0.36940676  0.36940676  0.36928718  1
  Pt  Pt877  1  0.46735170  0.50000000  0.27239828  1
  Pt  Pt878  1  0.50000000  0.46735170  0.27239828  1
  Pt  Pt879  1  0.53264831  0.50000000  0.27239828  1
  Pt  Pt880  1  0.50000000  0.53264831  0.27239828  1
  Pt  Pt881  1  0.50000000  0.46735170  0.72760173  1
  Pt  Pt882  1  0.46735170  0.50000000  0.72760173  1
  Pt  Pt883  1  0.53264831  0.50000000  0.72760173  1
  Pt  Pt884  1  0.50000000  0.53264831  0.72760173  1
  Pt  Pt885  1  0.63059323  0.33675846  0.40311110  1
  Pt  Pt886  1  0.36940676  0.33675846  0.40311110  1
  Pt  Pt887  1  0.33675846  0.63059323  0.40311110  1
  Pt  Pt888  1  0.33675846  0.36940676  0.40311110  1
  Pt  Pt889  1  0.63059323  0.33675846  0.59688891  1
  Pt  Pt890  1  0.36940676  0.33675846  0.59688891  1
  Pt  Pt891  1  0.33675846  0.36940676  0.59688891  1
  Pt  Pt892  1  0.33675846  0.63059323  0.59688891  1
  Pt  Pt893  1  0.66324155  0.63059323  0.40311110  1
  Pt  Pt894  1  0.66324155  0.36940676  0.40311110  1
  Pt  Pt895  1  0.63059323  0.66324155  0.40311110  1
  Pt  Pt896  1  0.36940676  0.66324155  0.40311110  1
  Pt  Pt897  1  0.63059323  0.66324155  0.59688891  1
  Pt  Pt898  1  0.66324155  0.36940676  0.59688891  1
  Pt  Pt899  1  0.66324155  0.63059323  0.59688891  1
  Pt  Pt900  1  0.36940676  0.66324155  0.59688891  1
  Pt  Pt901  1  0.33675846  0.33675846  0.50000000  1
  Pt  Pt902  1  0.46735170  0.27146185  0.50000000  1
  Pt  Pt903  1  0.27146185  0.46735170  0.50000000  1
  Pt  Pt904  1  0.53264831  0.27146185  0.50000000  1
  Pt  Pt905  1  0.27146185  0.53264831  0.50000000  1
  Pt  Pt906  1  0.66324155  0.33675846  0.50000000  1
  Pt  Pt907  1  0.33675846  0.66324155  0.50000000  1
  Pt  Pt908  1  0.72853816  0.46735170  0.50000000  1
  Pt  Pt909  1  0.46735170  0.72853816  0.50000000  1
  Pt  Pt910  1  0.72853816  0.53264831  0.50000000  1
  Pt  Pt911  1  0.53264831  0.72853816  0.50000000  1
  Pt  Pt912  1  0.66324155  0.66324155  0.50000000  1
  Pt  Pt913  1  0.40205508  0.33675846  0.36928718  1
  Pt  Pt914  1  0.40205508  0.33675846  0.63071281  1
  Pt  Pt915  1  0.33675846  0.40205508  0.36928718  1
  Pt  Pt916  1  0.33675846  0.40205508  0.63071281  1
  Pt  Pt917  1  0.59794493  0.33675846  0.63071281  1
  Pt  Pt918  1  0.59794493  0.33675846  0.36928718  1
  Pt  Pt919  1  0.33675846  0.59794493  0.63071281  1
  Pt  Pt920  1  0.33675846  0.59794493  0.36928718  1
  Pt  Pt921  1  0.66324155  0.40205508  0.36928718  1
  Pt  Pt922  1  0.66324155  0.40205508  0.63071281  1
  Pt  Pt923  1  0.40205508  0.66324155  0.36928718  1
  Pt  Pt924  1  0.40205508  0.66324155  0.63071281  1
  Pt  Pt925  1  0.59794493  0.66324155  0.63071281  1
  Pt  Pt926  1  0.59794493  0.66324155  0.36928718  1
  Pt  Pt927  1  0.66324155  0.59794493  0.63071281  1
  Pt  Pt928  1  0.66324155  0.59794493  0.36928718  1
  Pt  Pt929  1  0.50000000  0.27146185  0.46617610  1
  Pt  Pt930  1  0.27146185  0.50000000  0.46617610  1
  Pt  Pt931  1  0.50000000  0.27146185  0.53382391  1
  Pt  Pt932  1  0.27146185  0.50000000  0.53382391  1
  Pt  Pt933  1  0.72853816  0.50000000  0.46617610  1
  Pt  Pt934  1  0.50000000  0.72853816  0.46617610  1
  Pt  Pt935  1  0.72853816  0.50000000  0.53382391  1
  Pt  Pt936  1  0.50000000  0.72853816  0.53382391  1
  Pt  Pt937  1  0.50000000  0.33675846  0.33546328  1
  Pt  Pt938  1  0.33675846  0.50000000  0.33546328  1
  Pt  Pt939  1  0.63059323  0.40205508  0.33546328  1
  Pt  Pt940  1  0.40205508  0.36940676  0.33546328  1
  Pt  Pt941  1  0.36940676  0.40205508  0.33546328  1
  Pt  Pt942  1  0.40205508  0.63059323  0.33546328  1
  Pt  Pt943  1  0.59794493  0.63059323  0.33546328  1
  Pt  Pt944  1  0.63059323  0.59794493  0.33546328  1
  Pt  Pt945  1  0.59794493  0.36940676  0.33546328  1
  Pt  Pt946  1  0.36940676  0.59794493  0.33546328  1
  Pt  Pt947  1  0.50000000  0.33675846  0.66453673  1
  Pt  Pt948  1  0.33675846  0.50000000  0.66453673  1
  Pt  Pt949  1  0.66324155  0.50000000  0.33546328  1
  Pt  Pt950  1  0.50000000  0.66324155  0.33546328  1
  Pt  Pt951  1  0.63059323  0.40205508  0.66453673  1
  Pt  Pt952  1  0.40205508  0.36940676  0.66453673  1
  Pt  Pt953  1  0.36940676  0.40205508  0.66453673  1
  Pt  Pt954  1  0.40205508  0.63059323  0.66453673  1
  Pt  Pt955  1  0.59794493  0.63059323  0.66453673  1
  Pt  Pt956  1  0.63059323  0.59794493  0.66453673  1
  Pt  Pt957  1  0.59794493  0.36940676  0.66453673  1
  Pt  Pt958  1  0.36940676  0.59794493  0.66453673  1
  Pt  Pt959  1  0.66324155  0.50000000  0.66453673  1
  Pt  Pt960  1  0.50000000  0.66324155  0.66453673  1
  Pt  Pt961  1  0.63059323  0.69588985  0.50000000  1
  Pt  Pt962  1  0.63059323  0.30411015  0.50000000  1
  Pt  Pt963  1  0.69588985  0.63059323  0.50000000  1
  Pt  Pt964  1  0.69588985  0.36940676  0.50000000  1
  Pt  Pt965  1  0.36940676  0.30411015  0.50000000  1
  Pt  Pt966  1  0.30411015  0.63059323  0.50000000  1
  Pt  Pt967  1  0.30411015  0.36940676  0.50000000  1
  Pt  Pt968  1  0.36940676  0.69588985  0.50000000  1
  Pt  Pt969  1  0.69588985  0.50000000  0.36928718  1
  Pt  Pt970  1  0.69588985  0.50000000  0.63071281  1
  Pt  Pt971  1  0.50000000  0.30411015  0.63071281  1
  Pt  Pt972  1  0.50000000  0.69588985  0.36928718  1
  Pt  Pt973  1  0.50000000  0.30411015  0.36928718  1
  Pt  Pt974  1  0.50000000  0.69588985  0.63071281  1
  Pt  Pt975  1  0.30411015  0.50000000  0.63071281  1
  Pt  Pt976  1  0.30411015  0.50000000  0.36928718  1
  Pt  Pt977  1  0.56529661  0.46735170  0.27239828  1
  Pt  Pt978  1  0.43470338  0.46735170  0.27239828  1
  Pt  Pt979  1  0.46735170  0.43470338  0.27239828  1
  Pt  Pt980  1  0.46735170  0.56529661  0.27239828  1
  Pt  Pt981  1  0.56529661  0.53264831  0.27239828  1
  Pt  Pt982  1  0.53264831  0.56529661  0.27239828  1
  Pt  Pt983  1  0.53264831  0.43470338  0.27239828  1
  Pt  Pt984  1  0.43470338  0.53264831  0.27239828  1
  Pt  Pt985  1  0.56529661  0.46735170  0.72760173  1
  Pt  Pt986  1  0.46735170  0.56529661  0.72760173  1
  Pt  Pt987  1  0.46735170  0.43470338  0.72760173  1
  Pt  Pt988  1  0.43470338  0.46735170  0.72760173  1
  Pt  Pt989  1  0.53264831  0.56529661  0.72760173  1
  Pt  Pt990  1  0.56529661  0.53264831  0.72760173  1
  Pt  Pt991  1  0.43470338  0.53264831  0.72760173  1
  Pt  Pt992  1  0.53264831  0.43470338  0.72760173  1
  Pt  Pt993  1  0.69588985  0.40205508  0.40311110  1
  Pt  Pt994  1  0.40205508  0.30411015  0.40311110  1
  Pt  Pt995  1  0.30411015  0.40205508  0.40311110  1
  Pt  Pt996  1  0.40205508  0.69588985  0.40311110  1
  Pt  Pt997  1  0.69588985  0.40205508  0.59688891  1
  Pt  Pt998  1  0.40205508  0.30411015  0.59688891  1
  Pt  Pt999  1  0.30411015  0.40205508  0.59688891  1
  Pt  Pt1000  1  0.40205508  0.69588985  0.59688891  1
  Pt  Pt1001  1  0.69588985  0.59794493  0.40311110  1
  Pt  Pt1002  1  0.59794493  0.69588985  0.40311110  1
  Pt  Pt1003  1  0.59794493  0.30411015  0.40311110  1
  Pt  Pt1004  1  0.30411015  0.59794493  0.40311110  1
  Pt  Pt1005  1  0.69588985  0.59794493  0.59688891  1
  Pt  Pt1006  1  0.59794493  0.69588985  0.59688891  1
  Pt  Pt1007  1  0.59794493  0.30411015  0.59688891  1
  Pt  Pt1008  1  0.30411015  0.59794493  0.59688891  1
  Pt  Pt1009  1  0.33675846  0.33675846  0.56535640  1
  Pt  Pt1010  1  0.46735170  0.27146185  0.56535640  1
  Pt  Pt1011  1  0.27146185  0.46735170  0.56535640  1
  Pt  Pt1012  1  0.53264831  0.27146185  0.56535640  1
  Pt  Pt1013  1  0.27146185  0.53264831  0.56535640  1
  Pt  Pt1014  1  0.33675846  0.33675846  0.43464358  1
  Pt  Pt1015  1  0.46735170  0.27146185  0.43464358  1
  Pt  Pt1016  1  0.27146185  0.46735170  0.43464358  1
  Pt  Pt1017  1  0.53264831  0.27146185  0.43464358  1
  Pt  Pt1018  1  0.27146185  0.53264831  0.43464358  1
  Pt  Pt1019  1  0.66324155  0.33675846  0.56535640  1
  Pt  Pt1020  1  0.33675846  0.66324155  0.56535640  1
  Pt  Pt1021  1  0.66324155  0.33675846  0.43464358  1
  Pt  Pt1022  1  0.33675846  0.66324155  0.43464358  1
  Pt  Pt1023  1  0.72853816  0.46735170  0.56535640  1
  Pt  Pt1024  1  0.46735170  0.72853816  0.56535640  1
  Pt  Pt1025  1  0.72853816  0.53264831  0.56535640  1
  Pt  Pt1026  1  0.53264831  0.72853816  0.56535640  1
  Pt  Pt1027  1  0.66324155  0.66324155  0.56535640  1
  Pt  Pt1028  1  0.72853816  0.46735170  0.43464358  1
  Pt  Pt1029  1  0.46735170  0.72853816  0.43464358  1
  Pt  Pt1030  1  0.72853816  0.53264831  0.43464358  1
  Pt  Pt1031  1  0.53264831  0.72853816  0.43464358  1
  Pt  Pt1032  1  0.66324155  0.66324155  0.43464358  1
  Pt  Pt1033  1  0.40205508  0.40205508  0.69606921  1
  Pt  Pt1034  1  0.59794493  0.40205508  0.69606921  1
  Pt  Pt1035  1  0.40205508  0.59794493  0.69606921  1
  Pt  Pt1036  1  0.59794493  0.59794493  0.69606921  1
  Pt  Pt1037  1  0.40205508  0.40205508  0.30393076  1
  Pt  Pt1038  1  0.59794493  0.40205508  0.30393076  1
  Pt  Pt1039  1  0.40205508  0.59794493  0.30393076  1
  Pt  Pt1040  1  0.59794493  0.59794493  0.30393076  1
  Pt  Pt1041  1  0.56529661  0.27146185  0.46617610  1
  Pt  Pt1042  1  0.43470338  0.27146185  0.46617610  1
  Pt  Pt1043  1  0.27146185  0.56529661  0.46617610  1
  Pt  Pt1044  1  0.27146185  0.43470338  0.46617610  1
  Pt  Pt1045  1  0.56529661  0.27146185  0.53382391  1
  Pt  Pt1046  1  0.43470338  0.27146185  0.53382391  1
  Pt  Pt1047  1  0.27146185  0.43470338  0.53382391  1
  Pt  Pt1048  1  0.27146185  0.56529661  0.53382391  1
  Pt  Pt1049  1  0.72853816  0.56529661  0.46617610  1
  Pt  Pt1050  1  0.72853816  0.43470338  0.46617610  1
  Pt  Pt1051  1  0.56529661  0.72853816  0.46617610  1
  Pt  Pt1052  1  0.43470338  0.72853816  0.46617610  1
  Pt  Pt1053  1  0.72853816  0.56529661  0.53382391  1
  Pt  Pt1054  1  0.72853816  0.43470338  0.53382391  1
  Pt  Pt1055  1  0.56529661  0.72853816  0.53382391  1
  Pt  Pt1056  1  0.43470338  0.72853816  0.53382391  1
  Pt  Pt1057  1  0.56529661  0.33675846  0.33546328  1
  Pt  Pt1058  1  0.43470338  0.33675846  0.33546328  1
  Pt  Pt1059  1  0.33675846  0.43470338  0.33546328  1
  Pt  Pt1060  1  0.33675846  0.56529661  0.33546328  1
  Pt  Pt1061  1  0.56529661  0.33675846  0.66453673  1
  Pt  Pt1062  1  0.43470338  0.33675846  0.66453673  1
  Pt  Pt1063  1  0.33675846  0.43470338  0.66453673  1
  Pt  Pt1064  1  0.33675846  0.56529661  0.66453673  1
  Pt  Pt1065  1  0.66324155  0.56529661  0.33546328  1
  Pt  Pt1066  1  0.56529661  0.66324155  0.33546328  1
  Pt  Pt1067  1  0.66324155  0.43470338  0.33546328  1
  Pt  Pt1068  1  0.43470338  0.66324155  0.33546328  1
  Pt  Pt1069  1  0.66324155  0.43470338  0.66453673  1
  Pt  Pt1070  1  0.56529661  0.66324155  0.66453673  1
  Pt  Pt1071  1  0.66324155  0.56529661  0.66453673  1
  Pt  Pt1072  1  0.43470338  0.66324155  0.66453673  1
  Pt  Pt1073  1  0.69588985  0.43470338  0.36928718  1
  Pt  Pt1074  1  0.69588985  0.56529661  0.63071281  1
  Pt  Pt1075  1  0.69588985  0.43470338  0.63071281  1
  Pt  Pt1076  1  0.69588985  0.56529661  0.36928718  1
  Pt  Pt1077  1  0.56529661  0.69588985  0.36928718  1
  Pt  Pt1078  1  0.56529661  0.30411015  0.36928718  1
  Pt  Pt1079  1  0.56529661  0.30411015  0.63071281  1
  Pt  Pt1080  1  0.56529661  0.69588985  0.63071281  1
  Pt  Pt1081  1  0.43470338  0.69588985  0.63071281  1
  Pt  Pt1082  1  0.43470338  0.69588985  0.36928718  1
  Pt  Pt1083  1  0.30411015  0.56529661  0.63071281  1
  Pt  Pt1084  1  0.43470338  0.30411015  0.63071281  1
  Pt  Pt1085  1  0.30411015  0.56529661  0.36928718  1
  Pt  Pt1086  1  0.43470338  0.30411015  0.36928718  1
  Pt  Pt1087  1  0.30411015  0.43470338  0.36928718  1
  Pt  Pt1088  1  0.30411015  0.43470338  0.63071281  1
  Pt  Pt1089  1  0.40205508  0.50000000  0.27239828  1
  Pt  Pt1090  1  0.50000000  0.40205508  0.27239828  1
  Pt  Pt1091  1  0.59794493  0.50000000  0.27239828  1
  Pt  Pt1092  1  0.50000000  0.59794493  0.27239828  1
  Pt  Pt1093  1  0.50000000  0.40205508  0.72760173  1
  Pt  Pt1094  1  0.40205508  0.50000000  0.72760173  1
  Pt  Pt1095  1  0.59794493  0.50000000  0.72760173  1
  Pt  Pt1096  1  0.50000000  0.59794493  0.72760173  1
  Pt  Pt1097  1  0.50000000  0.27146185  0.40311110  1
  Pt  Pt1098  1  0.27146185  0.50000000  0.40311110  1
  Pt  Pt1099  1  0.50000000  0.27146185  0.59688891  1
  Pt  Pt1100  1  0.27146185  0.50000000  0.59688891  1
  Pt  Pt1101  1  0.72853816  0.50000000  0.40311110  1
  Pt  Pt1102  1  0.50000000  0.72853816  0.40311110  1
  Pt  Pt1103  1  0.72853816  0.50000000  0.59688891  1
  Pt  Pt1104  1  0.50000000  0.72853816  0.59688891  1
  Pt  Pt1105  1  0.40205508  0.27146185  0.50000000  1
  Pt  Pt1106  1  0.27146185  0.40205508  0.50000000  1
  Pt  Pt1107  1  0.59794493  0.27146185  0.50000000  1
  Pt  Pt1108  1  0.27146185  0.59794493  0.50000000  1
  Pt  Pt1109  1  0.72853816  0.40205508  0.50000000  1
  Pt  Pt1110  1  0.40205508  0.72853816  0.50000000  1
  Pt  Pt1111  1  0.72853816  0.59794493  0.50000000  1
  Pt  Pt1112  1  0.59794493  0.72853816  0.50000000  1
  Pt  Pt1113  1  0.56529661  0.40205508  0.27239828  1
  Pt  Pt1114  1  0.40205508  0.43470338  0.27239828  1
  Pt  Pt1115  1  0.43470338  0.40205508  0.27239828  1
  Pt  Pt1116  1  0.40205508  0.56529661  0.27239828  1
  Pt  Pt1117  1  0.59794493  0.56529661  0.27239828  1
  Pt  Pt1118  1  0.59794493  0.43470338  0.27239828  1
  Pt  Pt1119  1  0.56529661  0.59794493  0.27239828  1
  Pt  Pt1120  1  0.43470338  0.59794493  0.27239828  1
  Pt  Pt1121  1  0.56529661  0.40205508  0.72760173  1
  Pt  Pt1122  1  0.43470338  0.40205508  0.72760173  1
  Pt  Pt1123  1  0.40205508  0.43470338  0.72760173  1
  Pt  Pt1124  1  0.40205508  0.56529661  0.72760173  1
  Pt  Pt1125  1  0.59794493  0.56529661  0.72760173  1
  Pt  Pt1126  1  0.56529661  0.59794493  0.72760173  1
  Pt  Pt1127  1  0.59794493  0.43470338  0.72760173  1
  Pt  Pt1128  1  0.43470338  0.59794493  0.72760173  1
  Pt  Pt1129  1  0.56529661  0.27146185  0.40311110  1
  Pt  Pt1130  1  0.43470338  0.27146185  0.40311110  1
  Pt  Pt1131  1  0.27146185  0.56529661  0.40311110  1
  Pt  Pt1132  1  0.27146185  0.43470338  0.40311110  1
  Pt  Pt1133  1  0.56529661  0.27146185  0.59688891  1
  Pt  Pt1134  1  0.43470338  0.27146185  0.59688891  1
  Pt  Pt1135  1  0.27146185  0.56529661  0.59688891  1
  Pt  Pt1136  1  0.27146185  0.43470338  0.59688891  1
  Pt  Pt1137  1  0.72853816  0.43470338  0.40311110  1
  Pt  Pt1138  1  0.72853816  0.56529661  0.40311110  1
  Pt  Pt1139  1  0.56529661  0.72853816  0.40311110  1
  Pt  Pt1140  1  0.43470338  0.72853816  0.40311110  1
  Pt  Pt1141  1  0.72853816  0.43470338  0.59688891  1
  Pt  Pt1142  1  0.72853816  0.56529661  0.59688891  1
  Pt  Pt1143  1  0.56529661  0.72853816  0.59688891  1
  Pt  Pt1144  1  0.43470338  0.72853816  0.59688891  1
  Pt  Pt1145  1  0.40205508  0.27146185  0.56535640  1
  Pt  Pt1146  1  0.27146185  0.40205508  0.56535640  1
  Pt  Pt1147  1  0.40205508  0.27146185  0.43464358  1
  Pt  Pt1148  1  0.27146185  0.40205508  0.43464358  1
  Pt  Pt1149  1  0.59794493  0.27146185  0.56535640  1
  Pt  Pt1150  1  0.27146185  0.59794493  0.56535640  1
  Pt  Pt1151  1  0.59794493  0.27146185  0.43464358  1
  Pt  Pt1152  1  0.27146185  0.59794493  0.43464358  1
  Pt  Pt1153  1  0.72853816  0.40205508  0.56535640  1
  Pt  Pt1154  1  0.40205508  0.72853816  0.56535640  1
  Pt  Pt1155  1  0.72853816  0.40205508  0.43464358  1
  Pt  Pt1156  1  0.40205508  0.72853816  0.43464358  1
  Pt  Pt1157  1  0.72853816  0.59794493  0.56535640  1
  Pt  Pt1158  1  0.59794493  0.72853816  0.56535640  1
  Pt  Pt1159  1  0.72853816  0.59794493  0.43464358  1
  Pt  Pt1160  1  0.59794493  0.72853816  0.43464358  1
  Pt  Pt1161  1  0.46735170  0.33675846  0.69606921  1
  Pt  Pt1162  1  0.33675846  0.46735170  0.69606921  1
  Pt  Pt1163  1  0.53264831  0.33675846  0.69606921  1
  Pt  Pt1164  1  0.33675846  0.53264831  0.69606921  1
  Pt  Pt1165  1  0.66324155  0.46735170  0.69606921  1
  Pt  Pt1166  1  0.46735170  0.66324155  0.69606921  1
  Pt  Pt1167  1  0.53264831  0.66324155  0.69606921  1
  Pt  Pt1168  1  0.66324155  0.53264831  0.69606921  1
  Pt  Pt1169  1  0.46735170  0.33675846  0.30393076  1
  Pt  Pt1170  1  0.33675846  0.46735170  0.30393076  1
  Pt  Pt1171  1  0.53264831  0.33675846  0.30393076  1
  Pt  Pt1172  1  0.33675846  0.53264831  0.30393076  1
  Pt  Pt1173  1  0.66324155  0.46735170  0.30393076  1
  Pt  Pt1174  1  0.46735170  0.66324155  0.30393076  1
  Pt  Pt1175  1  0.66324155  0.53264831  0.30393076  1
  Pt  Pt1176  1  0.53264831  0.66324155  0.30393076  1
  Pt  Pt1177  1  0.69588985  0.33675846  0.46617610  1
  Pt  Pt1178  1  0.30411015  0.33675846  0.46617610  1
  Pt  Pt1179  1  0.33675846  0.69588985  0.46617610  1
  Pt  Pt1180  1  0.33675846  0.30411015  0.46617610  1
  Pt  Pt1181  1  0.69588985  0.33675846  0.53382391  1
  Pt  Pt1182  1  0.30411015  0.33675846  0.53382391  1
  Pt  Pt1183  1  0.33675846  0.30411015  0.53382391  1
  Pt  Pt1184  1  0.33675846  0.69588985  0.53382391  1
  Pt  Pt1185  1  0.69588985  0.66324155  0.46617610  1
  Pt  Pt1186  1  0.66324155  0.30411015  0.46617610  1
  Pt  Pt1187  1  0.66324155  0.69588985  0.46617610  1
  Pt  Pt1188  1  0.30411015  0.66324155  0.46617610  1
  Pt  Pt1189  1  0.69588985  0.66324155  0.53382391  1
  Pt  Pt1190  1  0.66324155  0.69588985  0.53382391  1
  Pt  Pt1191  1  0.66324155  0.30411015  0.53382391  1
  Pt  Pt1192  1  0.30411015  0.66324155  0.53382391  1
  Pt  Pt1193  1  0.69588985  0.46735170  0.33546328  1
  Pt  Pt1194  1  0.46735170  0.30411015  0.33546328  1
  Pt  Pt1195  1  0.46735170  0.69588985  0.33546328  1
  Pt  Pt1196  1  0.30411015  0.46735170  0.33546328  1
  Pt  Pt1197  1  0.69588985  0.53264831  0.33546328  1
  Pt  Pt1198  1  0.53264831  0.30411015  0.33546328  1
  Pt  Pt1199  1  0.53264831  0.69588985  0.33546328  1
  Pt  Pt1200  1  0.30411015  0.53264831  0.33546328  1
  Pt  Pt1201  1  0.69588985  0.46735170  0.66453673  1
  Pt  Pt1202  1  0.46735170  0.30411015  0.66453673  1
  Pt  Pt1203  1  0.46735170  0.69588985  0.66453673  1
  Pt  Pt1204  1  0.30411015  0.46735170  0.66453673  1
  Pt  Pt1205  1  0.69588985  0.53264831  0.66453673  1
  Pt  Pt1206  1  0.53264831  0.69588985  0.66453673  1
  Pt  Pt1207  1  0.53264831  0.30411015  0.66453673  1
  Pt  Pt1208  1  0.30411015  0.53264831  0.66453673  1
  Pt  Pt1209  1  0.76118646  0.50000000  0.50000000  1
  Pt  Pt1210  1  0.50000000  0.23881353  0.50000000  1
  Pt  Pt1211  1  0.50000000  0.76118646  0.50000000  1
  Pt  Pt1212  1  0.23881353  0.50000000  0.50000000  1
  Pt  Pt1213  1  0.50000000  0.50000000  0.23857436  1
  Pt  Pt1214  1  0.50000000  0.50000000  0.76142563  1
  Pt  Pt1215  1  0.63059323  0.46735170  0.27239828  1
  Pt  Pt1216  1  0.46735170  0.36940676  0.27239828  1
  Pt  Pt1217  1  0.36940676  0.46735170  0.27239828  1
  Pt  Pt1218  1  0.46735170  0.63059323  0.27239828  1
  Pt  Pt1219  1  0.53264831  0.63059323  0.27239828  1
  Pt  Pt1220  1  0.63059323  0.53264831  0.27239828  1
  Pt  Pt1221  1  0.53264831  0.36940676  0.27239828  1
  Pt  Pt1222  1  0.36940676  0.53264831  0.27239828  1
  Pt  Pt1223  1  0.63059323  0.46735170  0.72760173  1
  Pt  Pt1224  1  0.46735170  0.36940676  0.72760173  1
  Pt  Pt1225  1  0.46735170  0.63059323  0.72760173  1
  Pt  Pt1226  1  0.36940676  0.46735170  0.72760173  1
  Pt  Pt1227  1  0.63059323  0.53264831  0.72760173  1
  Pt  Pt1228  1  0.53264831  0.63059323  0.72760173  1
  Pt  Pt1229  1  0.53264831  0.36940676  0.72760173  1
  Pt  Pt1230  1  0.36940676  0.53264831  0.72760173  1
  Pt  Pt1231  1  0.33675846  0.33675846  0.36928718  1
  Pt  Pt1232  1  0.33675846  0.33675846  0.63071281  1
  Pt  Pt1233  1  0.46735170  0.27146185  0.63071281  1
  Pt  Pt1234  1  0.46735170  0.27146185  0.36928718  1
  Pt  Pt1235  1  0.27146185  0.46735170  0.36928718  1
  Pt  Pt1236  1  0.27146185  0.46735170  0.63071281  1
  Pt  Pt1237  1  0.53264831  0.27146185  0.63071281  1
  Pt  Pt1238  1  0.53264831  0.27146185  0.36928718  1
  Pt  Pt1239  1  0.27146185  0.53264831  0.36928718  1
  Pt  Pt1240  1  0.27146185  0.53264831  0.63071281  1
  Pt  Pt1241  1  0.66324155  0.33675846  0.63071281  1
  Pt  Pt1242  1  0.66324155  0.33675846  0.36928718  1
  Pt  Pt1243  1  0.33675846  0.66324155  0.36928718  1
  Pt  Pt1244  1  0.33675846  0.66324155  0.63071281  1
  Pt  Pt1245  1  0.72853816  0.46735170  0.36928718  1
  Pt  Pt1246  1  0.72853816  0.46735170  0.63071281  1
  Pt  Pt1247  1  0.46735170  0.72853816  0.36928718  1
  Pt  Pt1248  1  0.46735170  0.72853816  0.63071281  1
  Pt  Pt1249  1  0.72853816  0.53264831  0.63071281  1
  Pt  Pt1250  1  0.72853816  0.53264831  0.36928718  1
  Pt  Pt1251  1  0.53264831  0.72853816  0.36928718  1
  Pt  Pt1252  1  0.53264831  0.72853816  0.63071281  1
  Pt  Pt1253  1  0.66324155  0.66324155  0.63071281  1
  Pt  Pt1254  1  0.66324155  0.66324155  0.36928718  1
  Pt  Pt1255  1  0.63059323  0.27146185  0.46617610  1
  Pt  Pt1256  1  0.36940676  0.27146185  0.46617610  1
  Pt  Pt1257  1  0.27146185  0.63059323  0.46617610  1
  Pt  Pt1258  1  0.27146185  0.36940676  0.46617610  1
  Pt  Pt1259  1  0.63059323  0.27146185  0.53382391  1
  Pt  Pt1260  1  0.36940676  0.27146185  0.53382391  1
  Pt  Pt1261  1  0.27146185  0.36940676  0.53382391  1
  Pt  Pt1262  1  0.27146185  0.63059323  0.53382391  1
  Pt  Pt1263  1  0.76118646  0.46735170  0.46617610  1
  Pt  Pt1264  1  0.46735170  0.23881353  0.46617610  1
  Pt  Pt1265  1  0.46735170  0.76118646  0.46617610  1
  Pt  Pt1266  1  0.23881353  0.46735170  0.46617610  1
  Pt  Pt1267  1  0.76118646  0.46735170  0.53382391  1
  Pt  Pt1268  1  0.46735170  0.23881353  0.53382391  1
  Pt  Pt1269  1  0.46735170  0.76118646  0.53382391  1
  Pt  Pt1270  1  0.23881353  0.46735170  0.53382391  1
  Pt  Pt1271  1  0.76118646  0.53264831  0.46617610  1
  Pt  Pt1272  1  0.53264831  0.23881353  0.46617610  1
  Pt  Pt1273  1  0.53264831  0.76118646  0.46617610  1
  Pt  Pt1274  1  0.23881353  0.53264831  0.46617610  1
  Pt  Pt1275  1  0.76118646  0.53264831  0.53382391  1
  Pt  Pt1276  1  0.53264831  0.76118646  0.53382391  1
  Pt  Pt1277  1  0.53264831  0.23881353  0.53382391  1
  Pt  Pt1278  1  0.23881353  0.53264831  0.53382391  1
  Pt  Pt1279  1  0.72853816  0.36940676  0.46617610  1
  Pt  Pt1280  1  0.72853816  0.63059323  0.46617610  1
  Pt  Pt1281  1  0.63059323  0.72853816  0.46617610  1
  Pt  Pt1282  1  0.36940676  0.72853816  0.46617610  1
  Pt  Pt1283  1  0.72853816  0.63059323  0.53382391  1
  Pt  Pt1284  1  0.72853816  0.36940676  0.53382391  1
  Pt  Pt1285  1  0.63059323  0.72853816  0.53382391  1
  Pt  Pt1286  1  0.36940676  0.72853816  0.53382391  1
  Pt  Pt1287  1  0.46735170  0.46735170  0.23857436  1
  Pt  Pt1288  1  0.46735170  0.46735170  0.76142563  1
  Pt  Pt1289  1  0.53264831  0.46735170  0.76142563  1
  Pt  Pt1290  1  0.53264831  0.46735170  0.23857436  1
  Pt  Pt1291  1  0.46735170  0.53264831  0.76142563  1
  Pt  Pt1292  1  0.46735170  0.53264831  0.23857436  1
  Pt  Pt1293  1  0.53264831  0.53264831  0.76142563  1
  Pt  Pt1294  1  0.53264831  0.53264831  0.23857436  1
  Pt  Pt1295  1  0.63059323  0.33675846  0.33546328  1
  Pt  Pt1296  1  0.36940676  0.33675846  0.33546328  1
  Pt  Pt1297  1  0.33675846  0.63059323  0.33546328  1
  Pt  Pt1298  1  0.33675846  0.36940676  0.33546328  1
  Pt  Pt1299  1  0.63059323  0.33675846  0.66453673  1
  Pt  Pt1300  1  0.36940676  0.33675846  0.66453673  1
  Pt  Pt1301  1  0.33675846  0.36940676  0.66453673  1
  Pt  Pt1302  1  0.33675846  0.63059323  0.66453673  1
  Pt  Pt1303  1  0.66324155  0.36940676  0.33546328  1
  Pt  Pt1304  1  0.66324155  0.63059323  0.33546328  1
  Pt  Pt1305  1  0.63059323  0.66324155  0.33546328  1
  Pt  Pt1306  1  0.36940676  0.66324155  0.33546328  1
  Pt  Pt1307  1  0.66324155  0.36940676  0.66453673  1
  Pt  Pt1308  1  0.66324155  0.63059323  0.66453673  1
  Pt  Pt1309  1  0.63059323  0.66324155  0.66453673  1
  Pt  Pt1310  1  0.36940676  0.66324155  0.66453673  1
  Pt  Pt1311  1  0.76118646  0.43470338  0.50000000  1
  Pt  Pt1312  1  0.56529661  0.76118646  0.50000000  1
  Pt  Pt1313  1  0.76118646  0.56529661  0.50000000  1
  Pt  Pt1314  1  0.43470338  0.76118646  0.50000000  1
  Pt  Pt1315  1  0.56529661  0.23881353  0.50000000  1
  Pt  Pt1316  1  0.43470338  0.23881353  0.50000000  1
  Pt  Pt1317  1  0.23881353  0.43470338  0.50000000  1
  Pt  Pt1318  1  0.23881353  0.56529661  0.50000000  1
  Pt  Pt1319  1  0.69588985  0.63059323  0.36928718  1
  Pt  Pt1320  1  0.69588985  0.36940676  0.36928718  1
  Pt  Pt1321  1  0.69588985  0.36940676  0.63071281  1
  Pt  Pt1322  1  0.69588985  0.63059323  0.63071281  1
  Pt  Pt1323  1  0.63059323  0.69588985  0.36928718  1
  Pt  Pt1324  1  0.63059323  0.69588985  0.63071281  1
  Pt  Pt1325  1  0.63059323  0.30411015  0.36928718  1
  Pt  Pt1326  1  0.63059323  0.30411015  0.63071281  1
  Pt  Pt1327  1  0.36940676  0.69588985  0.36928718  1
  Pt  Pt1328  1  0.36940676  0.30411015  0.63071281  1
  Pt  Pt1329  1  0.36940676  0.30411015  0.36928718  1
  Pt  Pt1330  1  0.30411015  0.63059323  0.36928718  1
  Pt  Pt1331  1  0.30411015  0.36940676  0.36928718  1
  Pt  Pt1332  1  0.30411015  0.36940676  0.63071281  1
  Pt  Pt1333  1  0.36940676  0.69588985  0.63071281  1
  Pt  Pt1334  1  0.30411015  0.63059323  0.63071281  1
  Pt  Pt1335  1  0.56529661  0.50000000  0.76142563  1
  Pt  Pt1336  1  0.56529661  0.50000000  0.23857436  1
  Pt  Pt1337  1  0.50000000  0.56529661  0.23857436  1
  Pt  Pt1338  1  0.50000000  0.43470338  0.76142563  1
  Pt  Pt1339  1  0.43470338  0.50000000  0.76142563  1
  Pt  Pt1340  1  0.50000000  0.43470338  0.23857436  1
  Pt  Pt1341  1  0.50000000  0.56529661  0.76142563  1
  Pt  Pt1342  1  0.43470338  0.50000000  0.23857436  1
  Pt  Pt1343  1  0.69588985  0.33675846  0.40311110  1
  Pt  Pt1344  1  0.33675846  0.69588985  0.40311110  1
  Pt  Pt1345  1  0.33675846  0.30411015  0.40311110  1
  Pt  Pt1346  1  0.30411015  0.33675846  0.40311110  1
  Pt  Pt1347  1  0.69588985  0.33675846  0.59688891  1
  Pt  Pt1348  1  0.33675846  0.69588985  0.59688891  1
  Pt  Pt1349  1  0.30411015  0.33675846  0.59688891  1
  Pt  Pt1350  1  0.33675846  0.30411015  0.59688891  1
  Pt  Pt1351  1  0.69588985  0.66324155  0.40311110  1
  Pt  Pt1352  1  0.66324155  0.69588985  0.40311110  1
  Pt  Pt1353  1  0.66324155  0.30411015  0.40311110  1
  Pt  Pt1354  1  0.30411015  0.66324155  0.40311110  1
  Pt  Pt1355  1  0.69588985  0.66324155  0.59688891  1
  Pt  Pt1356  1  0.66324155  0.30411015  0.59688891  1
  Pt  Pt1357  1  0.66324155  0.69588985  0.59688891  1
  Pt  Pt1358  1  0.30411015  0.66324155  0.59688891  1
  Pt  Pt1359  1  0.40205508  0.33675846  0.69606921  1
  Pt  Pt1360  1  0.33675846  0.40205508  0.69606921  1
  Pt  Pt1361  1  0.59794493  0.33675846  0.69606921  1
  Pt  Pt1362  1  0.33675846  0.59794493  0.69606921  1
  Pt  Pt1363  1  0.66324155  0.40205508  0.69606921  1
  Pt  Pt1364  1  0.40205508  0.66324155  0.69606921  1
  Pt  Pt1365  1  0.40205508  0.33675846  0.30393076  1
  Pt  Pt1366  1  0.33675846  0.40205508  0.30393076  1
  Pt  Pt1367  1  0.59794493  0.66324155  0.69606921  1
  Pt  Pt1368  1  0.66324155  0.59794493  0.69606921  1
  Pt  Pt1369  1  0.59794493  0.33675846  0.30393076  1
  Pt  Pt1370  1  0.33675846  0.59794493  0.30393076  1
  Pt  Pt1371  1  0.66324155  0.40205508  0.30393076  1
  Pt  Pt1372  1  0.40205508  0.66324155  0.30393076  1
  Pt  Pt1373  1  0.59794493  0.66324155  0.30393076  1
  Pt  Pt1374  1  0.66324155  0.59794493  0.30393076  1
  Pt  Pt1375  1  0.69588985  0.40205508  0.33546328  1
  Pt  Pt1376  1  0.30411015  0.40205508  0.33546328  1
  Pt  Pt1377  1  0.40205508  0.69588985  0.33546328  1
  Pt  Pt1378  1  0.40205508  0.30411015  0.33546328  1
  Pt  Pt1379  1  0.59794493  0.30411015  0.33546328  1
  Pt  Pt1380  1  0.69588985  0.59794493  0.33546328  1
  Pt  Pt1381  1  0.59794493  0.69588985  0.33546328  1
  Pt  Pt1382  1  0.30411015  0.59794493  0.33546328  1
  Pt  Pt1383  1  0.69588985  0.40205508  0.66453673  1
  Pt  Pt1384  1  0.40205508  0.30411015  0.66453673  1
  Pt  Pt1385  1  0.40205508  0.69588985  0.66453673  1
  Pt  Pt1386  1  0.30411015  0.40205508  0.66453673  1
  Pt  Pt1387  1  0.59794493  0.69588985  0.66453673  1
  Pt  Pt1388  1  0.69588985  0.59794493  0.66453673  1
  Pt  Pt1389  1  0.59794493  0.30411015  0.66453673  1
  Pt  Pt1390  1  0.30411015  0.59794493  0.66453673  1
  Pt  Pt1391  1  0.69588985  0.30411015  0.50000000  1
  Pt  Pt1392  1  0.69588985  0.69588985  0.50000000  1
  Pt  Pt1393  1  0.30411015  0.30411015  0.50000000  1
  Pt  Pt1394  1  0.30411015  0.69588985  0.50000000  1
  Pt  Pt1395  1  0.56529661  0.43470338  0.23857436  1
  Pt  Pt1396  1  0.56529661  0.43470338  0.76142563  1
  Pt  Pt1397  1  0.56529661  0.56529661  0.23857436  1
  Pt  Pt1398  1  0.56529661  0.56529661  0.76142563  1
  Pt  Pt1399  1  0.43470338  0.43470338  0.23857436  1
  Pt  Pt1400  1  0.43470338  0.43470338  0.76142563  1
  Pt  Pt1401  1  0.43470338  0.56529661  0.76142563  1
  Pt  Pt1402  1  0.43470338  0.56529661  0.23857436  1
  Pt  Pt1403  1  0.50000000  0.33675846  0.27239828  1
  Pt  Pt1404  1  0.33675846  0.50000000  0.27239828  1
  Pt  Pt1405  1  0.63059323  0.40205508  0.27239828  1
  Pt  Pt1406  1  0.36940676  0.40205508  0.27239828  1
  Pt  Pt1407  1  0.40205508  0.36940676  0.27239828  1
  Pt  Pt1408  1  0.40205508  0.63059323  0.27239828  1
  Pt  Pt1409  1  0.63059323  0.59794493  0.27239828  1
  Pt  Pt1410  1  0.59794493  0.63059323  0.27239828  1
  Pt  Pt1411  1  0.59794493  0.36940676  0.27239828  1
  Pt  Pt1412  1  0.36940676  0.59794493  0.27239828  1
  Pt  Pt1413  1  0.66324155  0.50000000  0.27239828  1
  Pt  Pt1414  1  0.50000000  0.66324155  0.27239828  1
  Pt  Pt1415  1  0.50000000  0.33675846  0.72760173  1
  Pt  Pt1416  1  0.33675846  0.50000000  0.72760173  1
  Pt  Pt1417  1  0.63059323  0.40205508  0.72760173  1
  Pt  Pt1418  1  0.36940676  0.40205508  0.72760173  1
  Pt  Pt1419  1  0.40205508  0.36940676  0.72760173  1
  Pt  Pt1420  1  0.40205508  0.63059323  0.72760173  1
  Pt  Pt1421  1  0.63059323  0.59794493  0.72760173  1
  Pt  Pt1422  1  0.59794493  0.63059323  0.72760173  1
  Pt  Pt1423  1  0.59794493  0.36940676  0.72760173  1
  Pt  Pt1424  1  0.36940676  0.59794493  0.72760173  1
  Pt  Pt1425  1  0.66324155  0.50000000  0.72760173  1
  Pt  Pt1426  1  0.50000000  0.66324155  0.72760173  1
  Pt  Pt1427  1  0.63059323  0.27146185  0.40311110  1
  Pt  Pt1428  1  0.36940676  0.27146185  0.40311110  1
  Pt  Pt1429  1  0.27146185  0.63059323  0.40311110  1
  Pt  Pt1430  1  0.27146185  0.36940676  0.40311110  1
  Pt  Pt1431  1  0.63059323  0.27146185  0.59688891  1
  Pt  Pt1432  1  0.36940676  0.27146185  0.59688891  1
  Pt  Pt1433  1  0.27146185  0.36940676  0.59688891  1
  Pt  Pt1434  1  0.27146185  0.63059323  0.59688891  1
  Pt  Pt1435  1  0.76118646  0.46735170  0.40311110  1
  Pt  Pt1436  1  0.46735170  0.23881353  0.40311110  1
  Pt  Pt1437  1  0.46735170  0.76118646  0.40311110  1
  Pt  Pt1438  1  0.23881353  0.46735170  0.40311110  1
  Pt  Pt1439  1  0.76118646  0.53264831  0.40311110  1
  Pt  Pt1440  1  0.53264831  0.76118646  0.40311110  1
  Pt  Pt1441  1  0.53264831  0.23881353  0.40311110  1
  Pt  Pt1442  1  0.23881353  0.53264831  0.40311110  1
  Pt  Pt1443  1  0.76118646  0.46735170  0.59688891  1
  Pt  Pt1444  1  0.46735170  0.23881353  0.59688891  1
  Pt  Pt1445  1  0.46735170  0.76118646  0.59688891  1
  Pt  Pt1446  1  0.23881353  0.46735170  0.59688891  1
  Pt  Pt1447  1  0.76118646  0.53264831  0.59688891  1
  Pt  Pt1448  1  0.53264831  0.23881353  0.59688891  1
  Pt  Pt1449  1  0.53264831  0.76118646  0.59688891  1
  Pt  Pt1450  1  0.23881353  0.53264831  0.59688891  1
  Pt  Pt1451  1  0.63059323  0.72853816  0.40311110  1
  Pt  Pt1452  1  0.72853816  0.63059323  0.40311110  1
  Pt  Pt1453  1  0.72853816  0.36940676  0.40311110  1
  Pt  Pt1454  1  0.36940676  0.72853816  0.40311110  1
  Pt  Pt1455  1  0.72853816  0.36940676  0.59688891  1
  Pt  Pt1456  1  0.72853816  0.63059323  0.59688891  1
  Pt  Pt1457  1  0.63059323  0.72853816  0.59688891  1
  Pt  Pt1458  1  0.36940676  0.72853816  0.59688891  1
  Pt  Pt1459  1  0.27146185  0.33675846  0.50000000  1
  Pt  Pt1460  1  0.33675846  0.27146185  0.50000000  1
  Pt  Pt1461  1  0.66324155  0.27146185  0.50000000  1
  Pt  Pt1462  1  0.27146185  0.66324155  0.50000000  1
  Pt  Pt1463  1  0.72853816  0.33675846  0.50000000  1
  Pt  Pt1464  1  0.33675846  0.72853816  0.50000000  1
  Pt  Pt1465  1  0.72853816  0.66324155  0.50000000  1
  Pt  Pt1466  1  0.66324155  0.72853816  0.50000000  1
  Pt  Pt1467  1  0.27146185  0.40205508  0.36928718  1
  Pt  Pt1468  1  0.40205508  0.27146185  0.36928718  1
  Pt  Pt1469  1  0.40205508  0.27146185  0.63071281  1
  Pt  Pt1470  1  0.27146185  0.40205508  0.63071281  1
  Pt  Pt1471  1  0.59794493  0.27146185  0.63071281  1
  Pt  Pt1472  1  0.59794493  0.27146185  0.36928718  1
  Pt  Pt1473  1  0.27146185  0.59794493  0.36928718  1
  Pt  Pt1474  1  0.27146185  0.59794493  0.63071281  1
  Pt  Pt1475  1  0.72853816  0.40205508  0.63071281  1
  Pt  Pt1476  1  0.72853816  0.40205508  0.36928718  1
  Pt  Pt1477  1  0.40205508  0.72853816  0.36928718  1
  Pt  Pt1478  1  0.40205508  0.72853816  0.63071281  1
  Pt  Pt1479  1  0.59794493  0.72853816  0.63071281  1
  Pt  Pt1480  1  0.72853816  0.59794493  0.63071281  1
  Pt  Pt1481  1  0.72853816  0.59794493  0.36928718  1
  Pt  Pt1482  1  0.59794493  0.72853816  0.36928718  1
  Pt  Pt1483  1  0.76118646  0.40205508  0.46617610  1
  Pt  Pt1484  1  0.40205508  0.23881353  0.46617610  1
  Pt  Pt1485  1  0.40205508  0.76118646  0.46617610  1
  Pt  Pt1486  1  0.23881353  0.40205508  0.46617610  1
  Pt  Pt1487  1  0.40205508  0.23881353  0.53382391  1
  Pt  Pt1488  1  0.76118646  0.40205508  0.53382391  1
  Pt  Pt1489  1  0.40205508  0.76118646  0.53382391  1
  Pt  Pt1490  1  0.23881353  0.40205508  0.53382391  1
  Pt  Pt1491  1  0.59794493  0.23881353  0.46617610  1
  Pt  Pt1492  1  0.76118646  0.59794493  0.46617610  1
  Pt  Pt1493  1  0.59794493  0.76118646  0.46617610  1
  Pt  Pt1494  1  0.23881353  0.59794493  0.46617610  1
  Pt  Pt1495  1  0.76118646  0.59794493  0.53382391  1
  Pt  Pt1496  1  0.59794493  0.76118646  0.53382391  1
  Pt  Pt1497  1  0.59794493  0.23881353  0.53382391  1
  Pt  Pt1498  1  0.23881353  0.59794493  0.53382391  1
  Pt  Pt1499  1  0.46735170  0.40205508  0.76142563  1
  Pt  Pt1500  1  0.46735170  0.40205508  0.23857436  1
  Pt  Pt1501  1  0.40205508  0.46735170  0.23857436  1
  Pt  Pt1502  1  0.40205508  0.46735170  0.76142563  1
  Pt  Pt1503  1  0.53264831  0.40205508  0.23857436  1
  Pt  Pt1504  1  0.53264831  0.40205508  0.76142563  1
  Pt  Pt1505  1  0.40205508  0.53264831  0.23857436  1
  Pt  Pt1506  1  0.40205508  0.53264831  0.76142563  1
  Pt  Pt1507  1  0.59794493  0.46735170  0.23857436  1
  Pt  Pt1508  1  0.59794493  0.46735170  0.76142563  1
  Pt  Pt1509  1  0.46735170  0.59794493  0.76142563  1
  Pt  Pt1510  1  0.46735170  0.59794493  0.23857436  1
  Pt  Pt1511  1  0.53264831  0.59794493  0.23857436  1
  Pt  Pt1512  1  0.59794493  0.53264831  0.23857436  1
  Pt  Pt1513  1  0.53264831  0.59794493  0.76142563  1
  Pt  Pt1514  1  0.59794493  0.53264831  0.76142563  1
  Pt  Pt1515  1  0.50000000  0.27146185  0.33546328  1
  Pt  Pt1516  1  0.27146185  0.50000000  0.33546328  1
  Pt  Pt1517  1  0.50000000  0.27146185  0.66453673  1
  Pt  Pt1518  1  0.27146185  0.50000000  0.66453673  1
  Pt  Pt1519  1  0.72853816  0.50000000  0.33546328  1
  Pt  Pt1520  1  0.50000000  0.72853816  0.33546328  1
  Pt  Pt1521  1  0.72853816  0.50000000  0.66453673  1
  Pt  Pt1522  1  0.50000000  0.72853816  0.66453673  1
  Pt  Pt1523  1  0.43470338  0.33675846  0.27239828  1
  Pt  Pt1524  1  0.56529661  0.33675846  0.27239828  1
  Pt  Pt1525  1  0.33675846  0.56529661  0.27239828  1
  Pt  Pt1526  1  0.33675846  0.43470338  0.27239828  1
  Pt  Pt1527  1  0.66324155  0.56529661  0.27239828  1
  Pt  Pt1528  1  0.66324155  0.43470338  0.27239828  1
  Pt  Pt1529  1  0.56529661  0.66324155  0.27239828  1
  Pt  Pt1530  1  0.43470338  0.66324155  0.27239828  1
  Pt  Pt1531  1  0.56529661  0.33675846  0.72760173  1
  Pt  Pt1532  1  0.43470338  0.33675846  0.72760173  1
  Pt  Pt1533  1  0.33675846  0.56529661  0.72760173  1
  Pt  Pt1534  1  0.33675846  0.43470338  0.72760173  1
  Pt  Pt1535  1  0.66324155  0.56529661  0.72760173  1
  Pt  Pt1536  1  0.56529661  0.66324155  0.72760173  1
  Pt  Pt1537  1  0.66324155  0.43470338  0.72760173  1
  Pt  Pt1538  1  0.43470338  0.66324155  0.72760173  1
  Pt  Pt1539  1  0.27146185  0.33675846  0.56535640  1
  Pt  Pt1540  1  0.33675846  0.27146185  0.56535640  1
  Pt  Pt1541  1  0.33675846  0.27146185  0.43464358  1
  Pt  Pt1542  1  0.27146185  0.33675846  0.43464358  1
  Pt  Pt1543  1  0.66324155  0.27146185  0.56535640  1
  Pt  Pt1544  1  0.27146185  0.66324155  0.56535640  1
  Pt  Pt1545  1  0.72853816  0.33675846  0.56535640  1
  Pt  Pt1546  1  0.33675846  0.72853816  0.56535640  1
  Pt  Pt1547  1  0.66324155  0.27146185  0.43464358  1
  Pt  Pt1548  1  0.27146185  0.66324155  0.43464358  1
  Pt  Pt1549  1  0.72853816  0.33675846  0.43464358  1
  Pt  Pt1550  1  0.33675846  0.72853816  0.43464358  1
  Pt  Pt1551  1  0.72853816  0.66324155  0.56535640  1
  Pt  Pt1552  1  0.66324155  0.72853816  0.56535640  1
  Pt  Pt1553  1  0.72853816  0.66324155  0.43464358  1
  Pt  Pt1554  1  0.66324155  0.72853816  0.43464358  1
  Pt  Pt1555  1  0.56529661  0.27146185  0.33546328  1
  Pt  Pt1556  1  0.43470338  0.27146185  0.33546328  1
  Pt  Pt1557  1  0.27146185  0.56529661  0.33546328  1
  Pt  Pt1558  1  0.27146185  0.43470338  0.33546328  1
  Pt  Pt1559  1  0.56529661  0.27146185  0.66453673  1
  Pt  Pt1560  1  0.43470338  0.27146185  0.66453673  1
  Pt  Pt1561  1  0.27146185  0.56529661  0.66453673  1
  Pt  Pt1562  1  0.27146185  0.43470338  0.66453673  1
  Pt  Pt1563  1  0.72853816  0.56529661  0.33546328  1
  Pt  Pt1564  1  0.72853816  0.43470338  0.33546328  1
  Pt  Pt1565  1  0.56529661  0.72853816  0.33546328  1
  Pt  Pt1566  1  0.43470338  0.72853816  0.33546328  1
  Pt  Pt1567  1  0.72853816  0.43470338  0.66453673  1
  Pt  Pt1568  1  0.72853816  0.56529661  0.66453673  1
  Pt  Pt1569  1  0.56529661  0.72853816  0.66453673  1
  Pt  Pt1570  1  0.43470338  0.72853816  0.66453673  1
  Pt  Pt1571  1  0.76118646  0.63059323  0.50000000  1
  Pt  Pt1572  1  0.76118646  0.36940676  0.50000000  1
  Pt  Pt1573  1  0.63059323  0.23881353  0.50000000  1
  Pt  Pt1574  1  0.63059323  0.76118646  0.50000000  1
  Pt  Pt1575  1  0.36940676  0.76118646  0.50000000  1
  Pt  Pt1576  1  0.36940676  0.23881353  0.50000000  1
  Pt  Pt1577  1  0.23881353  0.36940676  0.50000000  1
  Pt  Pt1578  1  0.23881353  0.63059323  0.50000000  1
  Pt  Pt1579  1  0.76118646  0.50000000  0.36928718  1
  Pt  Pt1580  1  0.76118646  0.50000000  0.63071281  1
  Pt  Pt1581  1  0.50000000  0.76118646  0.63071281  1
  Pt  Pt1582  1  0.50000000  0.76118646  0.36928718  1
  Pt  Pt1583  1  0.50000000  0.23881353  0.36928718  1
  Pt  Pt1584  1  0.50000000  0.23881353  0.63071281  1
  Pt  Pt1585  1  0.23881353  0.50000000  0.36928718  1
  Pt  Pt1586  1  0.23881353  0.50000000  0.63071281  1
  Pt  Pt1587  1  0.63059323  0.50000000  0.23857436  1
  Pt  Pt1588  1  0.63059323  0.50000000  0.76142563  1
  Pt  Pt1589  1  0.50000000  0.63059323  0.76142563  1
  Pt  Pt1590  1  0.36940676  0.50000000  0.76142563  1
  Pt  Pt1591  1  0.36940676  0.50000000  0.23857436  1
  Pt  Pt1592  1  0.50000000  0.63059323  0.23857436  1
  Pt  Pt1593  1  0.50000000  0.36940676  0.23857436  1
  Pt  Pt1594  1  0.50000000  0.36940676  0.76142563  1
  Pt  Pt1595  1  0.76118646  0.40205508  0.40311110  1
  Pt  Pt1596  1  0.40205508  0.76118646  0.40311110  1
  Pt  Pt1597  1  0.40205508  0.23881353  0.40311110  1
  Pt  Pt1598  1  0.23881353  0.40205508  0.40311110  1
  Pt  Pt1599  1  0.76118646  0.40205508  0.59688891  1
  Pt  Pt1600  1  0.40205508  0.23881353  0.59688891  1
  Pt  Pt1601  1  0.40205508  0.76118646  0.59688891  1
  Pt  Pt1602  1  0.23881353  0.40205508  0.59688891  1
  Pt  Pt1603  1  0.59794493  0.76118646  0.40311110  1
  Pt  Pt1604  1  0.76118646  0.59794493  0.40311110  1
  Pt  Pt1605  1  0.59794493  0.23881353  0.40311110  1
  Pt  Pt1606  1  0.23881353  0.59794493  0.40311110  1
  Pt  Pt1607  1  0.59794493  0.23881353  0.59688891  1
  Pt  Pt1608  1  0.76118646  0.59794493  0.59688891  1
  Pt  Pt1609  1  0.59794493  0.76118646  0.59688891  1
  Pt  Pt1610  1  0.23881353  0.59794493  0.59688891  1
  Pt  Pt1611  1  0.46735170  0.20616523  0.50000000  1
  Pt  Pt1612  1  0.20616523  0.46735170  0.50000000  1
  Pt  Pt1613  1  0.53264831  0.20616523  0.50000000  1
  Pt  Pt1614  1  0.20616523  0.53264831  0.50000000  1
  Pt  Pt1615  1  0.79383478  0.46735170  0.50000000  1
  Pt  Pt1616  1  0.46735170  0.79383478  0.50000000  1
  Pt  Pt1617  1  0.79383478  0.53264831  0.50000000  1
  Pt  Pt1618  1  0.53264831  0.79383478  0.50000000  1
  Pt  Pt1619  1  0.50000000  0.20616523  0.46617610  1
  Pt  Pt1620  1  0.20616523  0.50000000  0.46617610  1
  Pt  Pt1621  1  0.50000000  0.20616523  0.53382391  1
  Pt  Pt1622  1  0.20616523  0.50000000  0.53382391  1
  Pt  Pt1623  1  0.79383478  0.50000000  0.46617610  1
  Pt  Pt1624  1  0.50000000  0.79383478  0.46617610  1
  Pt  Pt1625  1  0.79383478  0.50000000  0.53382391  1
  Pt  Pt1626  1  0.50000000  0.79383478  0.53382391  1
  Pt  Pt1627  1  0.40205508  0.40205508  0.23857436  1
  Pt  Pt1628  1  0.40205508  0.40205508  0.76142563  1
  Pt  Pt1629  1  0.59794493  0.40205508  0.76142563  1
  Pt  Pt1630  1  0.59794493  0.40205508  0.23857436  1
  Pt  Pt1631  1  0.40205508  0.59794493  0.23857436  1
  Pt  Pt1632  1  0.40205508  0.59794493  0.76142563  1
  Pt  Pt1633  1  0.59794493  0.59794493  0.76142563  1
  Pt  Pt1634  1  0.59794493  0.59794493  0.23857436  1
  Pt  Pt1635  1  0.50000000  0.46735170  0.20475046  1
  Pt  Pt1636  1  0.46735170  0.50000000  0.20475046  1
  Pt  Pt1637  1  0.53264831  0.50000000  0.20475046  1
  Pt  Pt1638  1  0.50000000  0.53264831  0.20475046  1
  Pt  Pt1639  1  0.46735170  0.50000000  0.79524955  1
  Pt  Pt1640  1  0.50000000  0.46735170  0.79524955  1
  Pt  Pt1641  1  0.50000000  0.53264831  0.79524955  1
  Pt  Pt1642  1  0.53264831  0.50000000  0.79524955  1
  Pt  Pt1643  1  0.76118646  0.43470338  0.63071281  1
  Pt  Pt1644  1  0.76118646  0.56529661  0.36928718  1
  Pt  Pt1645  1  0.76118646  0.43470338  0.36928718  1
  Pt  Pt1646  1  0.76118646  0.56529661  0.63071281  1
  Pt  Pt1647  1  0.56529661  0.23881353  0.36928718  1
  Pt  Pt1648  1  0.43470338  0.76118646  0.36928718  1
  Pt  Pt1649  1  0.56529661  0.76118646  0.36928718  1
  Pt  Pt1650  1  0.43470338  0.76118646  0.63071281  1
  Pt  Pt1651  1  0.56529661  0.76118646  0.63071281  1
  Pt  Pt1652  1  0.56529661  0.23881353  0.63071281  1
  Pt  Pt1653  1  0.43470338  0.23881353  0.63071281  1
  Pt  Pt1654  1  0.43470338  0.23881353  0.36928718  1
  Pt  Pt1655  1  0.23881353  0.43470338  0.36928718  1
  Pt  Pt1656  1  0.23881353  0.43470338  0.63071281  1
  Pt  Pt1657  1  0.23881353  0.56529661  0.36928718  1
  Pt  Pt1658  1  0.23881353  0.56529661  0.63071281  1
  Pt  Pt1659  1  0.63059323  0.56529661  0.23857436  1
  Pt  Pt1660  1  0.63059323  0.43470338  0.76142563  1
  Pt  Pt1661  1  0.63059323  0.56529661  0.76142563  1
  Pt  Pt1662  1  0.63059323  0.43470338  0.23857436  1
  Pt  Pt1663  1  0.56529661  0.63059323  0.23857436  1
  Pt  Pt1664  1  0.56529661  0.63059323  0.76142563  1
  Pt  Pt1665  1  0.56529661  0.36940676  0.23857436  1
  Pt  Pt1666  1  0.56529661  0.36940676  0.76142563  1
  Pt  Pt1667  1  0.36940676  0.56529661  0.76142563  1
  Pt  Pt1668  1  0.43470338  0.36940676  0.23857436  1
  Pt  Pt1669  1  0.43470338  0.63059323  0.23857436  1
  Pt  Pt1670  1  0.43470338  0.63059323  0.76142563  1
  Pt  Pt1671  1  0.36940676  0.43470338  0.23857436  1
  Pt  Pt1672  1  0.36940676  0.56529661  0.23857436  1
  Pt  Pt1673  1  0.43470338  0.36940676  0.76142563  1
  Pt  Pt1674  1  0.36940676  0.43470338  0.76142563  1
  Pt  Pt1675  1  0.69588985  0.46735170  0.27239828  1
  Pt  Pt1676  1  0.46735170  0.69588985  0.27239828  1
  Pt  Pt1677  1  0.46735170  0.30411015  0.27239828  1
  Pt  Pt1678  1  0.30411015  0.46735170  0.27239828  1
  Pt  Pt1679  1  0.69588985  0.53264831  0.27239828  1
  Pt  Pt1680  1  0.53264831  0.69588985  0.27239828  1
  Pt  Pt1681  1  0.53264831  0.30411015  0.27239828  1
  Pt  Pt1682  1  0.30411015  0.53264831  0.27239828  1
  Pt  Pt1683  1  0.69588985  0.46735170  0.72760173  1
  Pt  Pt1684  1  0.46735170  0.69588985  0.72760173  1
  Pt  Pt1685  1  0.46735170  0.30411015  0.72760173  1
  Pt  Pt1686  1  0.30411015  0.46735170  0.72760173  1
  Pt  Pt1687  1  0.69588985  0.53264831  0.72760173  1
  Pt  Pt1688  1  0.53264831  0.30411015  0.72760173  1
  Pt  Pt1689  1  0.53264831  0.69588985  0.72760173  1
  Pt  Pt1690  1  0.30411015  0.53264831  0.72760173  1
  Pt  Pt1691  1  0.46735170  0.20616523  0.56535640  1
  Pt  Pt1692  1  0.20616523  0.46735170  0.56535640  1
  Pt  Pt1693  1  0.53264831  0.20616523  0.56535640  1
  Pt  Pt1694  1  0.20616523  0.53264831  0.56535640  1
  Pt  Pt1695  1  0.46735170  0.20616523  0.43464358  1
  Pt  Pt1696  1  0.20616523  0.46735170  0.43464358  1
  Pt  Pt1697  1  0.53264831  0.20616523  0.43464358  1
  Pt  Pt1698  1  0.20616523  0.53264831  0.43464358  1
  Pt  Pt1699  1  0.79383478  0.46735170  0.56535640  1
  Pt  Pt1700  1  0.46735170  0.79383478  0.56535640  1
  Pt  Pt1701  1  0.79383478  0.53264831  0.56535640  1
  Pt  Pt1702  1  0.53264831  0.79383478  0.56535640  1
  Pt  Pt1703  1  0.79383478  0.46735170  0.43464358  1
  Pt  Pt1704  1  0.46735170  0.79383478  0.43464358  1
  Pt  Pt1705  1  0.79383478  0.53264831  0.43464358  1
  Pt  Pt1706  1  0.53264831  0.79383478  0.43464358  1
  Pt  Pt1707  1  0.33675846  0.33675846  0.69606921  1
  Pt  Pt1708  1  0.46735170  0.27146185  0.69606921  1
  Pt  Pt1709  1  0.27146185  0.46735170  0.69606921  1
  Pt  Pt1710  1  0.53264831  0.27146185  0.69606921  1
  Pt  Pt1711  1  0.27146185  0.53264831  0.69606921  1
  Pt  Pt1712  1  0.66324155  0.33675846  0.69606921  1
  Pt  Pt1713  1  0.33675846  0.66324155  0.69606921  1
  Pt  Pt1714  1  0.33675846  0.33675846  0.30393076  1
  Pt  Pt1715  1  0.46735170  0.27146185  0.30393076  1
  Pt  Pt1716  1  0.27146185  0.46735170  0.30393076  1
  Pt  Pt1717  1  0.72853816  0.46735170  0.69606921  1
  Pt  Pt1718  1  0.46735170  0.72853816  0.69606921  1
  Pt  Pt1719  1  0.53264831  0.27146185  0.30393076  1
  Pt  Pt1720  1  0.27146185  0.53264831  0.30393076  1
  Pt  Pt1721  1  0.72853816  0.53264831  0.69606921  1
  Pt  Pt1722  1  0.53264831  0.72853816  0.69606921  1
  Pt  Pt1723  1  0.66324155  0.66324155  0.69606921  1
  Pt  Pt1724  1  0.66324155  0.33675846  0.30393076  1
  Pt  Pt1725  1  0.33675846  0.66324155  0.30393076  1
  Pt  Pt1726  1  0.72853816  0.46735170  0.30393076  1
  Pt  Pt1727  1  0.46735170  0.72853816  0.30393076  1
  Pt  Pt1728  1  0.53264831  0.72853816  0.30393076  1
  Pt  Pt1729  1  0.72853816  0.53264831  0.30393076  1
  Pt  Pt1730  1  0.66324155  0.66324155  0.30393076  1
  Pt  Pt1731  1  0.56529661  0.20616523  0.46617610  1
  Pt  Pt1732  1  0.43470338  0.20616523  0.46617610  1
  Pt  Pt1733  1  0.20616523  0.43470338  0.46617610  1
  Pt  Pt1734  1  0.20616523  0.56529661  0.46617610  1
  Pt  Pt1735  1  0.43470338  0.20616523  0.53382391  1
  Pt  Pt1736  1  0.56529661  0.20616523  0.53382391  1
  Pt  Pt1737  1  0.20616523  0.43470338  0.53382391  1
  Pt  Pt1738  1  0.20616523  0.56529661  0.53382391  1
  Pt  Pt1739  1  0.69588985  0.27146185  0.46617610  1
  Pt  Pt1740  1  0.30411015  0.27146185  0.46617610  1
  Pt  Pt1741  1  0.27146185  0.69588985  0.46617610  1
  Pt  Pt1742  1  0.27146185  0.30411015  0.46617610  1
  Pt  Pt1743  1  0.69588985  0.27146185  0.53382391  1
  Pt  Pt1744  1  0.30411015  0.27146185  0.53382391  1
  Pt  Pt1745  1  0.27146185  0.30411015  0.53382391  1
  Pt  Pt1746  1  0.27146185  0.69588985  0.53382391  1
  Pt  Pt1747  1  0.72853816  0.69588985  0.46617610  1
  Pt  Pt1748  1  0.72853816  0.30411015  0.46617610  1
  Pt  Pt1749  1  0.69588985  0.72853816  0.46617610  1
  Pt  Pt1750  1  0.30411015  0.72853816  0.46617610  1
  Pt  Pt1751  1  0.72853816  0.30411015  0.53382391  1
  Pt  Pt1752  1  0.72853816  0.69588985  0.53382391  1
  Pt  Pt1753  1  0.69588985  0.72853816  0.53382391  1
  Pt  Pt1754  1  0.30411015  0.72853816  0.53382391  1
  Pt  Pt1755  1  0.79383478  0.56529661  0.46617610  1
  Pt  Pt1756  1  0.79383478  0.43470338  0.46617610  1
  Pt  Pt1757  1  0.56529661  0.79383478  0.46617610  1
  Pt  Pt1758  1  0.43470338  0.79383478  0.46617610  1
  Pt  Pt1759  1  0.79383478  0.43470338  0.53382391  1
  Pt  Pt1760  1  0.79383478  0.56529661  0.53382391  1
  Pt  Pt1761  1  0.56529661  0.79383478  0.53382391  1
  Pt  Pt1762  1  0.43470338  0.79383478  0.53382391  1
  Pt  Pt1763  1  0.69588985  0.33675846  0.33546328  1
  Pt  Pt1764  1  0.30411015  0.33675846  0.33546328  1
  Pt  Pt1765  1  0.33675846  0.30411015  0.33546328  1
  Pt  Pt1766  1  0.33675846  0.69588985  0.33546328  1
  Pt  Pt1767  1  0.69588985  0.33675846  0.66453673  1
  Pt  Pt1768  1  0.30411015  0.33675846  0.66453673  1
  Pt  Pt1769  1  0.33675846  0.30411015  0.66453673  1
  Pt  Pt1770  1  0.33675846  0.69588985  0.66453673  1
  Pt  Pt1771  1  0.66324155  0.30411015  0.33546328  1
  Pt  Pt1772  1  0.66324155  0.69588985  0.33546328  1
  Pt  Pt1773  1  0.69588985  0.66324155  0.33546328  1
  Pt  Pt1774  1  0.30411015  0.66324155  0.33546328  1
  Pt  Pt1775  1  0.66324155  0.69588985  0.66453673  1
  Pt  Pt1776  1  0.66324155  0.30411015  0.66453673  1
  Pt  Pt1777  1  0.69588985  0.66324155  0.66453673  1
  Pt  Pt1778  1  0.30411015  0.66324155  0.66453673  1
  Pt  Pt1779  1  0.56529661  0.46735170  0.20475046  1
  Pt  Pt1780  1  0.46735170  0.43470338  0.20475046  1
  Pt  Pt1781  1  0.46735170  0.56529661  0.20475046  1
  Pt  Pt1782  1  0.43470338  0.46735170  0.20475046  1
  Pt  Pt1783  1  0.56529661  0.53264831  0.20475046  1
  Pt  Pt1784  1  0.53264831  0.43470338  0.20475046  1
  Pt  Pt1785  1  0.53264831  0.56529661  0.20475046  1
  Pt  Pt1786  1  0.43470338  0.53264831  0.20475046  1
  Pt  Pt1787  1  0.56529661  0.46735170  0.79524955  1
  Pt  Pt1788  1  0.43470338  0.46735170  0.79524955  1
  Pt  Pt1789  1  0.46735170  0.43470338  0.79524955  1
  Pt  Pt1790  1  0.46735170  0.56529661  0.79524955  1
  Pt  Pt1791  1  0.53264831  0.43470338  0.79524955  1
  Pt  Pt1792  1  0.53264831  0.56529661  0.79524955  1
  Pt  Pt1793  1  0.56529661  0.53264831  0.79524955  1
  Pt  Pt1794  1  0.43470338  0.53264831  0.79524955  1
  Pt  Pt1795  1  0.69588985  0.69588985  0.63071281  1
  Pt  Pt1796  1  0.69588985  0.69588985  0.36928718  1
  Pt  Pt1797  1  0.69588985  0.30411015  0.63071281  1
  Pt  Pt1798  1  0.69588985  0.30411015  0.36928718  1
  Pt  Pt1799  1  0.30411015  0.69588985  0.63071281  1
  Pt  Pt1800  1  0.30411015  0.30411015  0.63071281  1
  Pt  Pt1801  1  0.30411015  0.30411015  0.36928718  1
  Pt  Pt1802  1  0.30411015  0.69588985  0.36928718  1
  Pt  Pt1803  1  0.63059323  0.33675846  0.27239828  1
  Pt  Pt1804  1  0.33675846  0.63059323  0.27239828  1
  Pt  Pt1805  1  0.36940676  0.33675846  0.27239828  1
  Pt  Pt1806  1  0.33675846  0.36940676  0.27239828  1
  Pt  Pt1807  1  0.63059323  0.66324155  0.27239828  1
  Pt  Pt1808  1  0.66324155  0.63059323  0.27239828  1
  Pt  Pt1809  1  0.66324155  0.36940676  0.27239828  1
  Pt  Pt1810  1  0.36940676  0.66324155  0.27239828  1
  Pt  Pt1811  1  0.63059323  0.33675846  0.72760173  1
  Pt  Pt1812  1  0.36940676  0.33675846  0.72760173  1
  Pt  Pt1813  1  0.33675846  0.63059323  0.72760173  1
  Pt  Pt1814  1  0.33675846  0.36940676  0.72760173  1
  Pt  Pt1815  1  0.66324155  0.63059323  0.72760173  1
  Pt  Pt1816  1  0.66324155  0.36940676  0.72760173  1
  Pt  Pt1817  1  0.63059323  0.66324155  0.72760173  1
  Pt  Pt1818  1  0.36940676  0.66324155  0.72760173  1
  Pt  Pt1819  1  0.50000000  0.20616523  0.40311110  1
  Pt  Pt1820  1  0.20616523  0.50000000  0.40311110  1
  Pt  Pt1821  1  0.50000000  0.20616523  0.59688891  1
  Pt  Pt1822  1  0.20616523  0.50000000  0.59688891  1
  Pt  Pt1823  1  0.79383478  0.50000000  0.40311110  1
  Pt  Pt1824  1  0.50000000  0.79383478  0.40311110  1
  Pt  Pt1825  1  0.79383478  0.50000000  0.59688891  1
  Pt  Pt1826  1  0.50000000  0.79383478  0.59688891  1
  Pt  Pt1827  1  0.40205508  0.20616523  0.50000000  1
  Pt  Pt1828  1  0.20616523  0.40205508  0.50000000  1
  Pt  Pt1829  1  0.59794493  0.20616523  0.50000000  1
  Pt  Pt1830  1  0.20616523  0.59794493  0.50000000  1
  Pt  Pt1831  1  0.79383478  0.40205508  0.50000000  1
  Pt  Pt1832  1  0.40205508  0.79383478  0.50000000  1
  Pt  Pt1833  1  0.59794493  0.79383478  0.50000000  1
  Pt  Pt1834  1  0.79383478  0.59794493  0.50000000  1
  Pt  Pt1835  1  0.27146185  0.33675846  0.36928718  1
  Pt  Pt1836  1  0.33675846  0.27146185  0.63071281  1
  Pt  Pt1837  1  0.27146185  0.33675846  0.63071281  1
  Pt  Pt1838  1  0.33675846  0.27146185  0.36928718  1
  Pt  Pt1839  1  0.66324155  0.27146185  0.63071281  1
  Pt  Pt1840  1  0.66324155  0.27146185  0.36928718  1
  Pt  Pt1841  1  0.27146185  0.66324155  0.36928718  1
  Pt  Pt1842  1  0.27146185  0.66324155  0.63071281  1
  Pt  Pt1843  1  0.72853816  0.33675846  0.36928718  1
  Pt  Pt1844  1  0.72853816  0.33675846  0.63071281  1
  Pt  Pt1845  1  0.33675846  0.72853816  0.36928718  1
  Pt  Pt1846  1  0.33675846  0.72853816  0.63071281  1
  Pt  Pt1847  1  0.72853816  0.66324155  0.63071281  1
  Pt  Pt1848  1  0.66324155  0.72853816  0.36928718  1
  Pt  Pt1849  1  0.72853816  0.66324155  0.36928718  1
  Pt  Pt1850  1  0.66324155  0.72853816  0.63071281  1
  Pt  Pt1851  1  0.76118646  0.33675846  0.46617610  1
  Pt  Pt1852  1  0.33675846  0.23881353  0.46617610  1
  Pt  Pt1853  1  0.23881353  0.33675846  0.46617610  1
  Pt  Pt1854  1  0.33675846  0.76118646  0.46617610  1
  Pt  Pt1855  1  0.76118646  0.33675846  0.53382391  1
  Pt  Pt1856  1  0.33675846  0.23881353  0.53382391  1
  Pt  Pt1857  1  0.23881353  0.33675846  0.53382391  1
  Pt  Pt1858  1  0.33675846  0.76118646  0.53382391  1
  Pt  Pt1859  1  0.66324155  0.76118646  0.46617610  1
  Pt  Pt1860  1  0.76118646  0.66324155  0.46617610  1
  Pt  Pt1861  1  0.66324155  0.23881353  0.46617610  1
  Pt  Pt1862  1  0.23881353  0.66324155  0.46617610  1
  Pt  Pt1863  1  0.66324155  0.76118646  0.53382391  1
  Pt  Pt1864  1  0.66324155  0.23881353  0.53382391  1
  Pt  Pt1865  1  0.76118646  0.66324155  0.53382391  1
  Pt  Pt1866  1  0.23881353  0.66324155  0.53382391  1
  Pt  Pt1867  1  0.46735170  0.33675846  0.76142563  1
  Pt  Pt1868  1  0.33675846  0.46735170  0.76142563  1
  Pt  Pt1869  1  0.33675846  0.46735170  0.23857436  1
  Pt  Pt1870  1  0.46735170  0.33675846  0.23857436  1
  Pt  Pt1871  1  0.53264831  0.33675846  0.76142563  1
  Pt  Pt1872  1  0.53264831  0.33675846  0.23857436  1
  Pt  Pt1873  1  0.33675846  0.53264831  0.23857436  1
  Pt  Pt1874  1  0.33675846  0.53264831  0.76142563  1
  Pt  Pt1875  1  0.66324155  0.46735170  0.23857436  1
  Pt  Pt1876  1  0.66324155  0.46735170  0.76142563  1
  Pt  Pt1877  1  0.46735170  0.66324155  0.23857436  1
  Pt  Pt1878  1  0.46735170  0.66324155  0.76142563  1
  Pt  Pt1879  1  0.53264831  0.66324155  0.76142563  1
  Pt  Pt1880  1  0.66324155  0.53264831  0.23857436  1
  Pt  Pt1881  1  0.66324155  0.53264831  0.76142563  1
  Pt  Pt1882  1  0.53264831  0.66324155  0.23857436  1
  Pt  Pt1883  1  0.63059323  0.27146185  0.33546328  1
  Pt  Pt1884  1  0.36940676  0.27146185  0.33546328  1
  Pt  Pt1885  1  0.27146185  0.36940676  0.33546328  1
  Pt  Pt1886  1  0.27146185  0.63059323  0.33546328  1
  Pt  Pt1887  1  0.76118646  0.46735170  0.33546328  1
  Pt  Pt1888  1  0.46735170  0.76118646  0.33546328  1
  Pt  Pt1889  1  0.46735170  0.23881353  0.33546328  1
  Pt  Pt1890  1  0.23881353  0.46735170  0.33546328  1
  Pt  Pt1891  1  0.76118646  0.53264831  0.33546328  1
  Pt  Pt1892  1  0.53264831  0.76118646  0.33546328  1
  Pt  Pt1893  1  0.53264831  0.23881353  0.33546328  1
  Pt  Pt1894  1  0.23881353  0.53264831  0.33546328  1
  Pt  Pt1895  1  0.63059323  0.27146185  0.66453673  1
  Pt  Pt1896  1  0.36940676  0.27146185  0.66453673  1
  Pt  Pt1897  1  0.27146185  0.63059323  0.66453673  1
  Pt  Pt1898  1  0.27146185  0.36940676  0.66453673  1
  Pt  Pt1899  1  0.72853816  0.36940676  0.33546328  1
  Pt  Pt1900  1  0.72853816  0.63059323  0.33546328  1
  Pt  Pt1901  1  0.63059323  0.72853816  0.33546328  1
  Pt  Pt1902  1  0.36940676  0.72853816  0.33546328  1
  Pt  Pt1903  1  0.76118646  0.46735170  0.66453673  1
  Pt  Pt1904  1  0.46735170  0.23881353  0.66453673  1
  Pt  Pt1905  1  0.46735170  0.76118646  0.66453673  1
  Pt  Pt1906  1  0.23881353  0.46735170  0.66453673  1
  Pt  Pt1907  1  0.76118646  0.53264831  0.66453673  1
  Pt  Pt1908  1  0.53264831  0.76118646  0.66453673  1
  Pt  Pt1909  1  0.53264831  0.23881353  0.66453673  1
  Pt  Pt1910  1  0.23881353  0.53264831  0.66453673  1
  Pt  Pt1911  1  0.63059323  0.72853816  0.66453673  1
  Pt  Pt1912  1  0.72853816  0.63059323  0.66453673  1
  Pt  Pt1913  1  0.72853816  0.36940676  0.66453673  1
  Pt  Pt1914  1  0.36940676  0.72853816  0.66453673  1
  Pt  Pt1915  1  0.50000000  0.40205508  0.20475046  1
  Pt  Pt1916  1  0.40205508  0.50000000  0.20475046  1
  Pt  Pt1917  1  0.50000000  0.59794493  0.20475046  1
  Pt  Pt1918  1  0.59794493  0.50000000  0.20475046  1
  Pt  Pt1919  1  0.40205508  0.50000000  0.79524955  1
  Pt  Pt1920  1  0.50000000  0.40205508  0.79524955  1
  Pt  Pt1921  1  0.59794493  0.50000000  0.79524955  1
  Pt  Pt1922  1  0.50000000  0.59794493  0.79524955  1
  Pt  Pt1923  1  0.69588985  0.40205508  0.27239828  1
  Pt  Pt1924  1  0.40205508  0.69588985  0.27239828  1
  Pt  Pt1925  1  0.30411015  0.40205508  0.27239828  1
  Pt  Pt1926  1  0.40205508  0.30411015  0.27239828  1
  Pt  Pt1927  1  0.59794493  0.69588985  0.27239828  1
  Pt  Pt1928  1  0.69588985  0.59794493  0.27239828  1
  Pt  Pt1929  1  0.59794493  0.30411015  0.27239828  1
  Pt  Pt1930  1  0.30411015  0.59794493  0.27239828  1
  Pt  Pt1931  1  0.69588985  0.40205508  0.72760173  1
  Pt  Pt1932  1  0.30411015  0.40205508  0.72760173  1
  Pt  Pt1933  1  0.40205508  0.69588985  0.72760173  1
  Pt  Pt1934  1  0.40205508  0.30411015  0.72760173  1
  Pt  Pt1935  1  0.59794493  0.69588985  0.72760173  1
  Pt  Pt1936  1  0.69588985  0.59794493  0.72760173  1
  Pt  Pt1937  1  0.59794493  0.30411015  0.72760173  1
  Pt  Pt1938  1  0.30411015  0.59794493  0.72760173  1
  Pt  Pt1939  1  0.56529661  0.20616523  0.40311110  1
  Pt  Pt1940  1  0.43470338  0.20616523  0.40311110  1
  Pt  Pt1941  1  0.20616523  0.56529661  0.40311110  1
  Pt  Pt1942  1  0.20616523  0.43470338  0.40311110  1
  Pt  Pt1943  1  0.69588985  0.27146185  0.40311110  1
  Pt  Pt1944  1  0.27146185  0.30411015  0.40311110  1
  Pt  Pt1945  1  0.27146185  0.69588985  0.40311110  1
  Pt  Pt1946  1  0.30411015  0.27146185  0.40311110  1
  Pt  Pt1947  1  0.56529661  0.20616523  0.59688891  1
  Pt  Pt1948  1  0.43470338  0.20616523  0.59688891  1
  Pt  Pt1949  1  0.20616523  0.43470338  0.59688891  1
  Pt  Pt1950  1  0.20616523  0.56529661  0.59688891  1
  Pt  Pt1951  1  0.69588985  0.27146185  0.59688891  1
  Pt  Pt1952  1  0.30411015  0.27146185  0.59688891  1
  Pt  Pt1953  1  0.27146185  0.69588985  0.59688891  1
  Pt  Pt1954  1  0.27146185  0.30411015  0.59688891  1
  Pt  Pt1955  1  0.72853816  0.69588985  0.40311110  1
  Pt  Pt1956  1  0.69588985  0.72853816  0.40311110  1
  Pt  Pt1957  1  0.72853816  0.30411015  0.40311110  1
  Pt  Pt1958  1  0.30411015  0.72853816  0.40311110  1
  Pt  Pt1959  1  0.79383478  0.43470338  0.40311110  1
  Pt  Pt1960  1  0.79383478  0.56529661  0.40311110  1
  Pt  Pt1961  1  0.56529661  0.79383478  0.40311110  1
  Pt  Pt1962  1  0.43470338  0.79383478  0.40311110  1
  Pt  Pt1963  1  0.72853816  0.30411015  0.59688891  1
  Pt  Pt1964  1  0.72853816  0.69588985  0.59688891  1
  Pt  Pt1965  1  0.69588985  0.72853816  0.59688891  1
  Pt  Pt1966  1  0.30411015  0.72853816  0.59688891  1
  Pt  Pt1967  1  0.79383478  0.56529661  0.59688891  1
  Pt  Pt1968  1  0.79383478  0.43470338  0.59688891  1
  Pt  Pt1969  1  0.56529661  0.79383478  0.59688891  1
  Pt  Pt1970  1  0.43470338  0.79383478  0.59688891  1
  Pt  Pt1971  1  0.40205508  0.20616523  0.56535640  1
  Pt  Pt1972  1  0.20616523  0.40205508  0.56535640  1
  Pt  Pt1973  1  0.40205508  0.20616523  0.43464358  1
  Pt  Pt1974  1  0.20616523  0.40205508  0.43464358  1
  Pt  Pt1975  1  0.59794493  0.20616523  0.56535640  1
  Pt  Pt1976  1  0.20616523  0.59794493  0.56535640  1
  Pt  Pt1977  1  0.59794493  0.20616523  0.43464358  1
  Pt  Pt1978  1  0.20616523  0.59794493  0.43464358  1
  Pt  Pt1979  1  0.79383478  0.40205508  0.56535640  1
  Pt  Pt1980  1  0.40205508  0.79383478  0.56535640  1
  Pt  Pt1981  1  0.79383478  0.40205508  0.43464358  1
  Pt  Pt1982  1  0.40205508  0.79383478  0.43464358  1
  Pt  Pt1983  1  0.79383478  0.59794493  0.56535640  1
  Pt  Pt1984  1  0.59794493  0.79383478  0.56535640  1
  Pt  Pt1985  1  0.59794493  0.79383478  0.43464358  1
  Pt  Pt1986  1  0.79383478  0.59794493  0.43464358  1
  Pt  Pt1987  1  0.27146185  0.40205508  0.69606921  1
  Pt  Pt1988  1  0.40205508  0.27146185  0.69606921  1
  Pt  Pt1989  1  0.59794493  0.27146185  0.69606921  1
  Pt  Pt1990  1  0.27146185  0.59794493  0.69606921  1
  Pt  Pt1991  1  0.40205508  0.27146185  0.30393076  1
  Pt  Pt1992  1  0.27146185  0.40205508  0.30393076  1
  Pt  Pt1993  1  0.72853816  0.40205508  0.69606921  1
  Pt  Pt1994  1  0.40205508  0.72853816  0.69606921  1
  Pt  Pt1995  1  0.59794493  0.27146185  0.30393076  1
  Pt  Pt1996  1  0.27146185  0.59794493  0.30393076  1
  Pt  Pt1997  1  0.72853816  0.59794493  0.69606921  1
  Pt  Pt1998  1  0.59794493  0.72853816  0.69606921  1
  Pt  Pt1999  1  0.72853816  0.40205508  0.30393076  1
  Pt  Pt2000  1  0.40205508  0.72853816  0.30393076  1
  Pt  Pt2001  1  0.72853816  0.59794493  0.30393076  1
  Pt  Pt2002  1  0.59794493  0.72853816  0.30393076  1
  Pt  Pt2003  1  0.56529661  0.40205508  0.20475046  1
  Pt  Pt2004  1  0.43470338  0.40205508  0.20475046  1
  Pt  Pt2005  1  0.40205508  0.43470338  0.20475046  1
  Pt  Pt2006  1  0.40205508  0.56529661  0.20475046  1
  Pt  Pt2007  1  0.59794493  0.56529661  0.20475046  1
  Pt  Pt2008  1  0.43470338  0.59794493  0.20475046  1
  Pt  Pt2009  1  0.56529661  0.59794493  0.20475046  1
  Pt  Pt2010  1  0.59794493  0.43470338  0.20475046  1
  Pt  Pt2011  1  0.40205508  0.43470338  0.79524955  1
  Pt  Pt2012  1  0.43470338  0.40205508  0.79524955  1
  Pt  Pt2013  1  0.56529661  0.40205508  0.79524955  1
  Pt  Pt2014  1  0.40205508  0.56529661  0.79524955  1
  Pt  Pt2015  1  0.59794493  0.56529661  0.79524955  1
  Pt  Pt2016  1  0.43470338  0.59794493  0.79524955  1
  Pt  Pt2017  1  0.59794493  0.43470338  0.79524955  1
  Pt  Pt2018  1  0.56529661  0.59794493  0.79524955  1
  Pt  Pt2019  1  0.76118646  0.36940676  0.63071281  1
  Pt  Pt2020  1  0.76118646  0.63059323  0.36928718  1
  Pt  Pt2021  1  0.76118646  0.63059323  0.63071281  1
  Pt  Pt2022  1  0.76118646  0.36940676  0.36928718  1
  Pt  Pt2023  1  0.63059323  0.76118646  0.63071281  1
  Pt  Pt2024  1  0.63059323  0.23881353  0.63071281  1
  Pt  Pt2025  1  0.63059323  0.23881353  0.36928718  1
  Pt  Pt2026  1  0.36940676  0.23881353  0.36928718  1
  Pt  Pt2027  1  0.36940676  0.23881353  0.63071281  1
  Pt  Pt2028  1  0.63059323  0.76118646  0.36928718  1
  Pt  Pt2029  1  0.23881353  0.36940676  0.36928718  1
  Pt  Pt2030  1  0.23881353  0.63059323  0.36928718  1
  Pt  Pt2031  1  0.36940676  0.76118646  0.63071281  1
  Pt  Pt2032  1  0.36940676  0.76118646  0.36928718  1
  Pt  Pt2033  1  0.23881353  0.63059323  0.63071281  1
  Pt  Pt2034  1  0.23881353  0.36940676  0.63071281  1
  Pt  Pt2035  1  0.63059323  0.36940676  0.23857436  1
  Pt  Pt2036  1  0.63059323  0.36940676  0.76142563  1
  Pt  Pt2037  1  0.63059323  0.63059323  0.23857436  1
  Pt  Pt2038  1  0.63059323  0.63059323  0.76142563  1
  Pt  Pt2039  1  0.36940676  0.63059323  0.23857436  1
  Pt  Pt2040  1  0.36940676  0.36940676  0.76142563  1
  Pt  Pt2041  1  0.36940676  0.36940676  0.23857436  1
  Pt  Pt2042  1  0.36940676  0.63059323  0.76142563  1
  Pt  Pt2043  1  0.50000000  0.27146185  0.27239828  1
  Pt  Pt2044  1  0.27146185  0.50000000  0.27239828  1
  Pt  Pt2045  1  0.50000000  0.27146185  0.72760173  1
  Pt  Pt2046  1  0.27146185  0.50000000  0.72760173  1
  Pt  Pt2047  1  0.72853816  0.50000000  0.27239828  1
  Pt  Pt2048  1  0.50000000  0.72853816  0.27239828  1
  Pt  Pt2049  1  0.72853816  0.50000000  0.72760173  1
  Pt  Pt2050  1  0.50000000  0.72853816  0.72760173  1
  Pt  Pt2051  1  0.76118646  0.33675846  0.40311110  1
  Pt  Pt2052  1  0.33675846  0.23881353  0.40311110  1
  Pt  Pt2053  1  0.23881353  0.33675846  0.40311110  1
  Pt  Pt2054  1  0.33675846  0.76118646  0.40311110  1
  Pt  Pt2055  1  0.76118646  0.33675846  0.59688891  1
  Pt  Pt2056  1  0.33675846  0.76118646  0.59688891  1
  Pt  Pt2057  1  0.23881353  0.33675846  0.59688891  1
  Pt  Pt2058  1  0.33675846  0.23881353  0.59688891  1
  Pt  Pt2059  1  0.66324155  0.76118646  0.40311110  1
  Pt  Pt2060  1  0.66324155  0.23881353  0.40311110  1
  Pt  Pt2061  1  0.76118646  0.66324155  0.40311110  1
  Pt  Pt2062  1  0.23881353  0.66324155  0.40311110  1
  Pt  Pt2063  1  0.76118646  0.66324155  0.59688891  1
  Pt  Pt2064  1  0.66324155  0.23881353  0.59688891  1
  Pt  Pt2065  1  0.66324155  0.76118646  0.59688891  1
  Pt  Pt2066  1  0.23881353  0.66324155  0.59688891  1
  Pt  Pt2067  1  0.27146185  0.27146185  0.50000000  1
  Pt  Pt2068  1  0.72853816  0.27146185  0.50000000  1
  Pt  Pt2069  1  0.27146185  0.72853816  0.50000000  1
  Pt  Pt2070  1  0.72853816  0.72853816  0.50000000  1
  Pt  Pt2071  1  0.46735170  0.20616523  0.36928718  1
  Pt  Pt2072  1  0.46735170  0.20616523  0.63071281  1
  Pt  Pt2073  1  0.20616523  0.46735170  0.36928718  1
  Pt  Pt2074  1  0.20616523  0.46735170  0.63071281  1
  Pt  Pt2075  1  0.53264831  0.20616523  0.63071281  1
  Pt  Pt2076  1  0.53264831  0.20616523  0.36928718  1
  Pt  Pt2077  1  0.20616523  0.53264831  0.63071281  1
  Pt  Pt2078  1  0.20616523  0.53264831  0.36928718  1
  Pt  Pt2079  1  0.79383478  0.46735170  0.36928718  1
  Pt  Pt2080  1  0.79383478  0.46735170  0.63071281  1
  Pt  Pt2081  1  0.46735170  0.79383478  0.36928718  1
  Pt  Pt2082  1  0.46735170  0.79383478  0.63071281  1
  Pt  Pt2083  1  0.79383478  0.53264831  0.36928718  1
  Pt  Pt2084  1  0.79383478  0.53264831  0.63071281  1
  Pt  Pt2085  1  0.53264831  0.79383478  0.63071281  1
  Pt  Pt2086  1  0.53264831  0.79383478  0.36928718  1
  Pt  Pt2087  1  0.63059323  0.20616523  0.46617610  1
  Pt  Pt2088  1  0.36940676  0.20616523  0.46617610  1
  Pt  Pt2089  1  0.20616523  0.63059323  0.46617610  1
  Pt  Pt2090  1  0.20616523  0.36940676  0.46617610  1
  Pt  Pt2091  1  0.36940676  0.20616523  0.53382391  1
  Pt  Pt2092  1  0.63059323  0.20616523  0.53382391  1
  Pt  Pt2093  1  0.20616523  0.36940676  0.53382391  1
  Pt  Pt2094  1  0.20616523  0.63059323  0.53382391  1
  Pt  Pt2095  1  0.79383478  0.36940676  0.46617610  1
  Pt  Pt2096  1  0.79383478  0.63059323  0.46617610  1
  Pt  Pt2097  1  0.63059323  0.79383478  0.46617610  1
  Pt  Pt2098  1  0.36940676  0.79383478  0.46617610  1
  Pt  Pt2099  1  0.79383478  0.36940676  0.53382391  1
  Pt  Pt2100  1  0.79383478  0.63059323  0.53382391  1
  Pt  Pt2101  1  0.63059323  0.79383478  0.53382391  1
  Pt  Pt2102  1  0.36940676  0.79383478  0.53382391  1
  Pt  Pt2103  1  0.33675846  0.40205508  0.76142563  1
  Pt  Pt2104  1  0.40205508  0.33675846  0.76142563  1
  Pt  Pt2105  1  0.40205508  0.33675846  0.23857436  1
  Pt  Pt2106  1  0.33675846  0.40205508  0.23857436  1
  Pt  Pt2107  1  0.59794493  0.33675846  0.23857436  1
  Pt  Pt2108  1  0.59794493  0.33675846  0.76142563  1
  Pt  Pt2109  1  0.33675846  0.59794493  0.76142563  1
  Pt  Pt2110  1  0.33675846  0.59794493  0.23857436  1
  Pt  Pt2111  1  0.66324155  0.40205508  0.23857436  1
  Pt  Pt2112  1  0.66324155  0.40205508  0.76142563  1
  Pt  Pt2113  1  0.40205508  0.66324155  0.76142563  1
  Pt  Pt2114  1  0.40205508  0.66324155  0.23857436  1
  Pt  Pt2115  1  0.59794493  0.66324155  0.23857436  1
  Pt  Pt2116  1  0.59794493  0.66324155  0.76142563  1
  Pt  Pt2117  1  0.66324155  0.59794493  0.23857436  1
  Pt  Pt2118  1  0.66324155  0.59794493  0.76142563  1
  Pt  Pt2119  1  0.76118646  0.40205508  0.33546328  1
  Pt  Pt2120  1  0.40205508  0.23881353  0.33546328  1
  Pt  Pt2121  1  0.40205508  0.76118646  0.33546328  1
  Pt  Pt2122  1  0.23881353  0.40205508  0.33546328  1
  Pt  Pt2123  1  0.59794493  0.23881353  0.33546328  1
  Pt  Pt2124  1  0.59794493  0.76118646  0.33546328  1
  Pt  Pt2125  1  0.76118646  0.59794493  0.33546328  1
  Pt  Pt2126  1  0.23881353  0.59794493  0.33546328  1
  Pt  Pt2127  1  0.76118646  0.40205508  0.66453673  1
  Pt  Pt2128  1  0.40205508  0.23881353  0.66453673  1
  Pt  Pt2129  1  0.23881353  0.40205508  0.66453673  1
  Pt  Pt2130  1  0.40205508  0.76118646  0.66453673  1
  Pt  Pt2131  1  0.59794493  0.76118646  0.66453673  1
  Pt  Pt2132  1  0.76118646  0.59794493  0.66453673  1
  Pt  Pt2133  1  0.59794493  0.23881353  0.66453673  1
  Pt  Pt2134  1  0.23881353  0.59794493  0.66453673  1
  Pt  Pt2135  1  0.63059323  0.46735170  0.20475046  1
  Pt  Pt2136  1  0.36940676  0.46735170  0.20475046  1
  Pt  Pt2137  1  0.46735170  0.63059323  0.20475046  1
  Pt  Pt2138  1  0.46735170  0.36940676  0.20475046  1
  Pt  Pt2139  1  0.53264831  0.36940676  0.20475046  1
  Pt  Pt2140  1  0.63059323  0.53264831  0.20475046  1
  Pt  Pt2141  1  0.53264831  0.63059323  0.20475046  1
  Pt  Pt2142  1  0.36940676  0.53264831  0.20475046  1
  Pt  Pt2143  1  0.63059323  0.46735170  0.79524955  1
  Pt  Pt2144  1  0.36940676  0.46735170  0.79524955  1
  Pt  Pt2145  1  0.46735170  0.36940676  0.79524955  1
  Pt  Pt2146  1  0.46735170  0.63059323  0.79524955  1
  Pt  Pt2147  1  0.53264831  0.63059323  0.79524955  1
  Pt  Pt2148  1  0.63059323  0.53264831  0.79524955  1
  Pt  Pt2149  1  0.53264831  0.36940676  0.79524955  1
  Pt  Pt2150  1  0.36940676  0.53264831  0.79524955  1
  Pt  Pt2151  1  0.76118646  0.30411015  0.50000000  1
  Pt  Pt2152  1  0.69588985  0.23881353  0.50000000  1
  Pt  Pt2153  1  0.69588985  0.76118646  0.50000000  1
  Pt  Pt2154  1  0.76118646  0.69588985  0.50000000  1
  Pt  Pt2155  1  0.82648308  0.50000000  0.50000000  1
  Pt  Pt2156  1  0.50000000  0.82648308  0.50000000  1
  Pt  Pt2157  1  0.30411015  0.76118646  0.50000000  1
  Pt  Pt2158  1  0.50000000  0.17351691  0.50000000  1
  Pt  Pt2159  1  0.23881353  0.30411015  0.50000000  1
  Pt  Pt2160  1  0.30411015  0.23881353  0.50000000  1
  Pt  Pt2161  1  0.23881353  0.69588985  0.50000000  1
  Pt  Pt2162  1  0.17351691  0.50000000  0.50000000  1
  Pt  Pt2163  1  0.69588985  0.50000000  0.23857436  1
  Pt  Pt2164  1  0.50000000  0.30411015  0.23857436  1
  Pt  Pt2165  1  0.50000000  0.30411015  0.76142563  1
  Pt  Pt2166  1  0.69588985  0.50000000  0.76142563  1
  Pt  Pt2167  1  0.50000000  0.69588985  0.76142563  1
  Pt  Pt2168  1  0.50000000  0.69588985  0.23857436  1
  Pt  Pt2169  1  0.30411015  0.50000000  0.23857436  1
  Pt  Pt2170  1  0.30411015  0.50000000  0.76142563  1
  Pt  Pt2171  1  0.56529661  0.27146185  0.27239828  1
  Pt  Pt2172  1  0.43470338  0.27146185  0.27239828  1
  Pt  Pt2173  1  0.27146185  0.43470338  0.27239828  1
  Pt  Pt2174  1  0.27146185  0.56529661  0.27239828  1
  Pt  Pt2175  1  0.56529661  0.27146185  0.72760173  1
  Pt  Pt2176  1  0.43470338  0.27146185  0.72760173  1
  Pt  Pt2177  1  0.27146185  0.43470338  0.72760173  1
  Pt  Pt2178  1  0.27146185  0.56529661  0.72760173  1
  Pt  Pt2179  1  0.72853816  0.43470338  0.27239828  1
  Pt  Pt2180  1  0.72853816  0.56529661  0.27239828  1
  Pt  Pt2181  1  0.56529661  0.72853816  0.27239828  1
  Pt  Pt2182  1  0.43470338  0.72853816  0.27239828  1
  Pt  Pt2183  1  0.72853816  0.43470338  0.72760173  1
  Pt  Pt2184  1  0.72853816  0.56529661  0.72760173  1
  Pt  Pt2185  1  0.56529661  0.72853816  0.72760173  1
  Pt  Pt2186  1  0.43470338  0.72853816  0.72760173  1
  Pt  Pt2187  1  0.27146185  0.27146185  0.56535640  1
  Pt  Pt2188  1  0.27146185  0.27146185  0.43464358  1
  Pt  Pt2189  1  0.72853816  0.27146185  0.56535640  1
  Pt  Pt2190  1  0.27146185  0.72853816  0.56535640  1
  Pt  Pt2191  1  0.72853816  0.27146185  0.43464358  1
  Pt  Pt2192  1  0.27146185  0.72853816  0.43464358  1
  Pt  Pt2193  1  0.72853816  0.72853816  0.56535640  1
  Pt  Pt2194  1  0.72853816  0.72853816  0.43464358  1
  Pt  Pt2195  1  0.82648308  0.46735170  0.46617610  1
  Pt  Pt2196  1  0.46735170  0.17351691  0.46617610  1
  Pt  Pt2197  1  0.46735170  0.82648308  0.46617610  1
  Pt  Pt2198  1  0.17351691  0.46735170  0.46617610  1
  Pt  Pt2199  1  0.46735170  0.17351691  0.53382391  1
  Pt  Pt2200  1  0.82648308  0.46735170  0.53382391  1
  Pt  Pt2201  1  0.46735170  0.82648308  0.53382391  1
  Pt  Pt2202  1  0.17351691  0.46735170  0.53382391  1
  Pt  Pt2203  1  0.82648308  0.53264831  0.46617610  1
  Pt  Pt2204  1  0.53264831  0.82648308  0.46617610  1
  Pt  Pt2205  1  0.53264831  0.17351691  0.46617610  1
  Pt  Pt2206  1  0.17351691  0.53264831  0.46617610  1
  Pt  Pt2207  1  0.53264831  0.82648308  0.53382391  1
  Pt  Pt2208  1  0.82648308  0.53264831  0.53382391  1
  Pt  Pt2209  1  0.53264831  0.17351691  0.53382391  1
  Pt  Pt2210  1  0.17351691  0.53264831  0.53382391  1
  Pt  Pt2211  1  0.46735170  0.46735170  0.82678203  1
  Pt  Pt2212  1  0.53264831  0.46735170  0.82678203  1
  Pt  Pt2213  1  0.46735170  0.53264831  0.82678203  1
  Pt  Pt2214  1  0.53264831  0.53264831  0.82678203  1
  Pt  Pt2215  1  0.46735170  0.46735170  0.17321795  1
  Pt  Pt2216  1  0.53264831  0.46735170  0.17321795  1
  Pt  Pt2217  1  0.46735170  0.53264831  0.17321795  1
  Pt  Pt2218  1  0.53264831  0.53264831  0.17321795  1
  Pt  Pt2219  1  0.82648308  0.43470338  0.50000000  1
  Pt  Pt2220  1  0.82648308  0.56529661  0.50000000  1
  Pt  Pt2221  1  0.43470338  0.82648308  0.50000000  1
  Pt  Pt2222  1  0.56529661  0.17351691  0.50000000  1
  Pt  Pt2223  1  0.56529661  0.82648308  0.50000000  1
  Pt  Pt2224  1  0.43470338  0.17351691  0.50000000  1
  Pt  Pt2225  1  0.17351691  0.56529661  0.50000000  1
  Pt  Pt2226  1  0.17351691  0.43470338  0.50000000  1
  Pt  Pt2227  1  0.69588985  0.56529661  0.76142563  1
  Pt  Pt2228  1  0.69588985  0.43470338  0.76142563  1
  Pt  Pt2229  1  0.56529661  0.30411015  0.23857436  1
  Pt  Pt2230  1  0.69588985  0.56529661  0.23857436  1
  Pt  Pt2231  1  0.69588985  0.43470338  0.23857436  1
  Pt  Pt2232  1  0.56529661  0.69588985  0.76142563  1
  Pt  Pt2233  1  0.56529661  0.30411015  0.76142563  1
  Pt  Pt2234  1  0.56529661  0.69588985  0.23857436  1
  Pt  Pt2235  1  0.30411015  0.56529661  0.23857436  1
  Pt  Pt2236  1  0.43470338  0.69588985  0.23857436  1
  Pt  Pt2237  1  0.30411015  0.43470338  0.23857436  1
  Pt  Pt2238  1  0.30411015  0.43470338  0.76142563  1
  Pt  Pt2239  1  0.30411015  0.56529661  0.76142563  1
  Pt  Pt2240  1  0.43470338  0.30411015  0.23857436  1
  Pt  Pt2241  1  0.43470338  0.30411015  0.76142563  1
  Pt  Pt2242  1  0.43470338  0.69588985  0.76142563  1
