data_con0.0_2nm_full_ontop_re
_audit_creation_date              2024-05-20
_audit_creation_method            'Materials Studio'
_symmetry_space_group_name_H-M    'P1'
_symmetry_Int_Tables_number       1
_symmetry_cell_setting            triclinic
loop_
_symmetry_equiv_pos_as_xyz
  x,y,z
_cell_length_a                    60.0000
_cell_length_b                    60.0000
_cell_length_c                    60.0000
_cell_angle_alpha                 90.0000
_cell_angle_beta                  90.0000
_cell_angle_gamma                 90.0000
loop_
_atom_site_label
_atom_site_type_symbol
_atom_site_fract_x
_atom_site_fract_y
_atom_site_fract_z
_atom_site_U_iso_or_equiv
_atom_site_adp_type
_atom_site_occupancy
Ni1    Ni    0.54564   0.50000   0.50010   0.00000  Uiso   1.00
Ni2    Ni    0.50002   0.50000   0.54572   0.00000  Uiso   1.00
Ni3    Ni    0.50002   0.50000   0.45448   0.00000  Uiso   1.00
Ni4    Ni    0.45440   0.50000   0.50010   0.00000  Uiso   1.00
Ni5    Ni    0.54564   0.56451   0.50010   0.00000  Uiso   1.00
Ni6    Ni    0.54564   0.43549   0.50010   0.00000  Uiso   1.00
Ni7    Ni    0.50002   0.56451   0.45448   0.00000  Uiso   1.00
Ni8    Ni    0.50002   0.56451   0.54572   0.00000  Uiso   1.00
Ni9    Ni    0.50002   0.43549   0.45448   0.00000  Uiso   1.00
Ni10   Ni    0.50002   0.43549   0.54572   0.00000  Uiso   1.00
Ni11   Ni    0.45440   0.56451   0.50010   0.00000  Uiso   1.00
Ni12   Ni    0.45440   0.43549   0.50010   0.00000  Uiso   1.00
Ni13   Ni    0.59126   0.50000   0.45449   0.00000  Uiso   1.00
Ni14   Ni    0.59126   0.50000   0.54572   0.00000  Uiso   1.00
Ni15   Ni    0.54563   0.50000   0.40886   0.00000  Uiso   1.00
Ni16   Ni    0.54563   0.50000   0.59134   0.00000  Uiso   1.00
Ni17   Ni    0.45440   0.50000   0.59134   0.00000  Uiso   1.00
Ni18   Ni    0.45440   0.50000   0.40886   0.00000  Uiso   1.00
Ni19   Ni    0.40878   0.50000   0.54572   0.00000  Uiso   1.00
Ni20   Ni    0.40878   0.50000   0.45449   0.00000  Uiso   1.00
Ni21   Ni    0.59126   0.56451   0.45449   0.00000  Uiso   1.00
Ni22   Ni    0.59126   0.56451   0.54572   0.00000  Uiso   1.00
Ni23   Ni    0.59126   0.43549   0.45449   0.00000  Uiso   1.00
Ni24   Ni    0.59126   0.43549   0.54572   0.00000  Uiso   1.00
Ni25   Ni    0.54563   0.56451   0.40886   0.00000  Uiso   1.00
Ni26   Ni    0.54563   0.43549   0.40886   0.00000  Uiso   1.00
Ni27   Ni    0.54563   0.56451   0.59134   0.00000  Uiso   1.00
Ni28   Ni    0.54563   0.43549   0.59134   0.00000  Uiso   1.00
Ni29   Ni    0.45440   0.56451   0.40886   0.00000  Uiso   1.00
Ni30   Ni    0.45440   0.56451   0.59134   0.00000  Uiso   1.00
Ni31   Ni    0.45440   0.43549   0.40886   0.00000  Uiso   1.00
Ni32   Ni    0.45440   0.43549   0.59134   0.00000  Uiso   1.00
Ni33   Ni    0.40878   0.56451   0.45449   0.00000  Uiso   1.00
Ni34   Ni    0.40878   0.56451   0.54572   0.00000  Uiso   1.00
Ni35   Ni    0.40878   0.43549   0.54572   0.00000  Uiso   1.00
Ni36   Ni    0.40878   0.43549   0.45449   0.00000  Uiso   1.00
Ni37   Ni    0.63687   0.50000   0.50010   0.00000  Uiso   1.00
Ni38   Ni    0.54564   0.62903   0.50010   0.00000  Uiso   1.00
Ni39   Ni    0.54564   0.37097   0.50010   0.00000  Uiso   1.00
Ni40   Ni    0.50002   0.62903   0.45448   0.00000  Uiso   1.00
Ni41   Ni    0.50002   0.62903   0.54572   0.00000  Uiso   1.00
Ni42   Ni    0.50002   0.50000   0.36325   0.00000  Uiso   1.00
Ni43   Ni    0.50002   0.50000   0.63696   0.00000  Uiso   1.00
Ni44   Ni    0.50002   0.37097   0.54572   0.00000  Uiso   1.00
Ni45   Ni    0.50002   0.37097   0.45448   0.00000  Uiso   1.00
Ni46   Ni    0.45440   0.62903   0.50010   0.00000  Uiso   1.00
Ni47   Ni    0.45440   0.37097   0.50010   0.00000  Uiso   1.00
Ni48   Ni    0.36317   0.50000   0.50010   0.00000  Uiso   1.00
Ni49   Ni    0.63687   0.56451   0.50010   0.00000  Uiso   1.00
Ni50   Ni    0.63687   0.43549   0.50010   0.00000  Uiso   1.00
Ni51   Ni    0.50002   0.56451   0.36325   0.00000  Uiso   1.00
Ni52   Ni    0.50002   0.43549   0.36325   0.00000  Uiso   1.00
Ni53   Ni    0.50002   0.43549   0.63696   0.00000  Uiso   1.00
Ni54   Ni    0.50002   0.56451   0.63696   0.00000  Uiso   1.00
Ni55   Ni    0.36317   0.43549   0.50010   0.00000  Uiso   1.00
Ni56   Ni    0.36317   0.56451   0.50010   0.00000  Uiso   1.00
Ni57   Ni    0.63687   0.50000   0.40887   0.00000  Uiso   1.00
Ni58   Ni    0.63687   0.50000   0.59133   0.00000  Uiso   1.00
Ni59   Ni    0.59126   0.62903   0.45449   0.00000  Uiso   1.00
Ni60   Ni    0.59126   0.62903   0.54572   0.00000  Uiso   1.00
Ni61   Ni    0.59125   0.50000   0.36325   0.00000  Uiso   1.00
Ni62   Ni    0.59126   0.37097   0.45449   0.00000  Uiso   1.00
Ni63   Ni    0.59125   0.50000   0.63696   0.00000  Uiso   1.00
Ni64   Ni    0.59126   0.37097   0.54572   0.00000  Uiso   1.00
Ni65   Ni    0.54563   0.62903   0.40886   0.00000  Uiso   1.00
Ni66   Ni    0.54563   0.62903   0.59134   0.00000  Uiso   1.00
Ni67   Ni    0.54563   0.37097   0.40886   0.00000  Uiso   1.00
Ni68   Ni    0.54563   0.37097   0.59134   0.00000  Uiso   1.00
Ni69   Ni    0.45440   0.62903   0.40886   0.00000  Uiso   1.00
Ni70   Ni    0.45440   0.62903   0.59134   0.00000  Uiso   1.00
Ni71   Ni    0.45440   0.37097   0.40886   0.00000  Uiso   1.00
Ni72   Ni    0.45440   0.37097   0.59134   0.00000  Uiso   1.00
Ni73   Ni    0.40878   0.62903   0.45449   0.00000  Uiso   1.00
Ni74   Ni    0.40878   0.62903   0.54572   0.00000  Uiso   1.00
Ni75   Ni    0.40879   0.50000   0.63696   0.00000  Uiso   1.00
Ni76   Ni    0.40878   0.37097   0.45449   0.00000  Uiso   1.00
Ni77   Ni    0.40879   0.50000   0.36325   0.00000  Uiso   1.00
Ni78   Ni    0.40878   0.37097   0.54572   0.00000  Uiso   1.00
Ni79   Ni    0.36317   0.50000   0.59133   0.00000  Uiso   1.00
Ni80   Ni    0.36317   0.50000   0.40887   0.00000  Uiso   1.00
Ni81   Ni    0.63687   0.56451   0.40887   0.00000  Uiso   1.00
Ni82   Ni    0.63687   0.43549   0.40887   0.00000  Uiso   1.00
Ni83   Ni    0.63687   0.56451   0.59133   0.00000  Uiso   1.00
Ni84   Ni    0.63687   0.43549   0.59133   0.00000  Uiso   1.00
Ni85   Ni    0.59125   0.56451   0.36325   0.00000  Uiso   1.00
Ni86   Ni    0.59125   0.43549   0.36325   0.00000  Uiso   1.00
Ni87   Ni    0.59125   0.56451   0.63696   0.00000  Uiso   1.00
Ni88   Ni    0.59125   0.43549   0.63696   0.00000  Uiso   1.00
Ni89   Ni    0.40879   0.56451   0.36325   0.00000  Uiso   1.00
Ni90   Ni    0.40879   0.43549   0.36325   0.00000  Uiso   1.00
Ni91   Ni    0.40879   0.43549   0.63696   0.00000  Uiso   1.00
Ni92   Ni    0.40879   0.56451   0.63696   0.00000  Uiso   1.00
Ni93   Ni    0.36317   0.56451   0.40887   0.00000  Uiso   1.00
Ni94   Ni    0.36317   0.43549   0.40887   0.00000  Uiso   1.00
Ni95   Ni    0.36317   0.56451   0.59133   0.00000  Uiso   1.00
Ni96   Ni    0.36317   0.43549   0.59133   0.00000  Uiso   1.00
Ni97   Ni    0.68249   0.50000   0.45449   0.00000  Uiso   1.00
Ni98   Ni    0.68249   0.50000   0.54572   0.00000  Uiso   1.00
Ni99   Ni    0.63687   0.62903   0.50010   0.00000  Uiso   1.00
Ni100  Ni    0.63687   0.37097   0.50010   0.00000  Uiso   1.00
Ni101  Ni    0.54563   0.50000   0.31763   0.00000  Uiso   1.00
Ni102  Ni    0.54563   0.50000   0.68257   0.00000  Uiso   1.00
Ni103  Ni    0.50002   0.62903   0.36325   0.00000  Uiso   1.00
Ni104  Ni    0.50002   0.62903   0.63696   0.00000  Uiso   1.00
Ni105  Ni    0.50002   0.37097   0.36325   0.00000  Uiso   1.00
Ni106  Ni    0.50002   0.37097   0.63696   0.00000  Uiso   1.00
Ni107  Ni    0.45440   0.50000   0.31763   0.00000  Uiso   1.00
Ni108  Ni    0.45440   0.50000   0.68257   0.00000  Uiso   1.00
Ni109  Ni    0.36317   0.62903   0.50010   0.00000  Uiso   1.00
Ni110  Ni    0.36317   0.37097   0.50010   0.00000  Uiso   1.00
Ni111  Ni    0.31755   0.50000   0.54572   0.00000  Uiso   1.00
Ni112  Ni    0.31755   0.50000   0.45449   0.00000  Uiso   1.00
Ni113  Ni    0.68249   0.56451   0.45449   0.00000  Uiso   1.00
Ni114  Ni    0.68249   0.43549   0.45449   0.00000  Uiso   1.00
Ni115  Ni    0.68249   0.56451   0.54572   0.00000  Uiso   1.00
Ni116  Ni    0.68249   0.43549   0.54572   0.00000  Uiso   1.00
Ni117  Ni    0.54564   0.69354   0.50010   0.00000  Uiso   1.00
Ni118  Ni    0.54563   0.56451   0.31763   0.00000  Uiso   1.00
Ni119  Ni    0.54563   0.43549   0.31763   0.00000  Uiso   1.00
Ni120  Ni    0.54564   0.30646   0.50010   0.00000  Uiso   1.00
Ni121  Ni    0.54563   0.43549   0.68257   0.00000  Uiso   1.00
Ni122  Ni    0.54563   0.56451   0.68257   0.00000  Uiso   1.00
Ni123  Ni    0.50002   0.69354   0.45448   0.00000  Uiso   1.00
Ni124  Ni    0.50002   0.69354   0.54572   0.00000  Uiso   1.00
Ni125  Ni    0.50002   0.30646   0.45448   0.00000  Uiso   1.00
Ni126  Ni    0.50002   0.30646   0.54572   0.00000  Uiso   1.00
Ni127  Ni    0.45440   0.69354   0.50010   0.00000  Uiso   1.00
Ni128  Ni    0.45440   0.56451   0.31763   0.00000  Uiso   1.00
Ni129  Ni    0.45440   0.43549   0.31763   0.00000  Uiso   1.00
Ni130  Ni    0.45440   0.30646   0.50010   0.00000  Uiso   1.00
Ni131  Ni    0.45440   0.56451   0.68257   0.00000  Uiso   1.00
Ni132  Ni    0.45440   0.43549   0.68257   0.00000  Uiso   1.00
Ni133  Ni    0.31755   0.43549   0.54572   0.00000  Uiso   1.00
Ni134  Ni    0.31755   0.56451   0.45449   0.00000  Uiso   1.00
Ni135  Ni    0.31755   0.56451   0.54572   0.00000  Uiso   1.00
Ni136  Ni    0.31755   0.43549   0.45449   0.00000  Uiso   1.00
Ni137  Ni    0.63687   0.62903   0.40887   0.00000  Uiso   1.00
Ni138  Ni    0.63687   0.62903   0.59133   0.00000  Uiso   1.00
Ni139  Ni    0.63687   0.37097   0.40887   0.00000  Uiso   1.00
Ni140  Ni    0.63687   0.37097   0.59133   0.00000  Uiso   1.00
Ni141  Ni    0.59125   0.62903   0.36325   0.00000  Uiso   1.00
Ni142  Ni    0.59125   0.37097   0.36325   0.00000  Uiso   1.00
Ni143  Ni    0.59125   0.62903   0.63696   0.00000  Uiso   1.00
Ni144  Ni    0.59125   0.37097   0.63696   0.00000  Uiso   1.00
Ni145  Ni    0.40879   0.62903   0.36325   0.00000  Uiso   1.00
Ni146  Ni    0.40879   0.62903   0.63696   0.00000  Uiso   1.00
Ni147  Ni    0.40879   0.37097   0.63696   0.00000  Uiso   1.00
Ni148  Ni    0.40879   0.37097   0.36325   0.00000  Uiso   1.00
Ni149  Ni    0.36317   0.62903   0.40887   0.00000  Uiso   1.00
Ni150  Ni    0.36317   0.62903   0.59133   0.00000  Uiso   1.00
Ni151  Ni    0.36317   0.37097   0.40887   0.00000  Uiso   1.00
Ni152  Ni    0.36317   0.37097   0.59133   0.00000  Uiso   1.00
Ni153  Ni    0.59126   0.69354   0.45449   0.00000  Uiso   1.00
Ni154  Ni    0.59126   0.69354   0.54572   0.00000  Uiso   1.00
Ni155  Ni    0.59126   0.30646   0.45449   0.00000  Uiso   1.00
Ni156  Ni    0.59126   0.30646   0.54572   0.00000  Uiso   1.00
Ni157  Ni    0.54563   0.69354   0.40886   0.00000  Uiso   1.00
Ni158  Ni    0.54563   0.69354   0.59134   0.00000  Uiso   1.00
Ni159  Ni    0.54563   0.30646   0.40886   0.00000  Uiso   1.00
Ni160  Ni    0.54563   0.30646   0.59134   0.00000  Uiso   1.00
Ni161  Ni    0.45440   0.69354   0.40886   0.00000  Uiso   1.00
Ni162  Ni    0.45440   0.69354   0.59134   0.00000  Uiso   1.00
Ni163  Ni    0.45440   0.30646   0.40886   0.00000  Uiso   1.00
Ni164  Ni    0.45440   0.30646   0.59134   0.00000  Uiso   1.00
Ni165  Ni    0.40878   0.69354   0.54572   0.00000  Uiso   1.00
Ni166  Ni    0.40878   0.69354   0.45449   0.00000  Uiso   1.00
Ni167  Ni    0.40878   0.30646   0.45449   0.00000  Uiso   1.00
Ni168  Ni    0.40878   0.30646   0.54572   0.00000  Uiso   1.00
Ni169  Ni    0.72810   0.50000   0.50010   0.00000  Uiso   1.00
Ni170  Ni    0.68249   0.62903   0.45449   0.00000  Uiso   1.00
Ni171  Ni    0.68249   0.62903   0.54572   0.00000  Uiso   1.00
Ni172  Ni    0.68250   0.50000   0.36325   0.00000  Uiso   1.00
Ni173  Ni    0.68249   0.37097   0.45449   0.00000  Uiso   1.00
Ni174  Ni    0.68250   0.50000   0.63696   0.00000  Uiso   1.00
Ni175  Ni    0.68249   0.37097   0.54572   0.00000  Uiso   1.00
Ni176  Ni    0.63687   0.50000   0.31763   0.00000  Uiso   1.00
Ni177  Ni    0.63687   0.50000   0.68258   0.00000  Uiso   1.00
Ni178  Ni    0.54563   0.62903   0.31763   0.00000  Uiso   1.00
Ni179  Ni    0.54563   0.37097   0.31763   0.00000  Uiso   1.00
Ni180  Ni    0.54563   0.62903   0.68257   0.00000  Uiso   1.00
Ni181  Ni    0.54563   0.37097   0.68257   0.00000  Uiso   1.00
Ni182  Ni    0.50002   0.50000   0.27202   0.00000  Uiso   1.00
Ni183  Ni    0.50002   0.50000   0.72819   0.00000  Uiso   1.00
Ni184  Ni    0.45440   0.62903   0.31763   0.00000  Uiso   1.00
Ni185  Ni    0.45440   0.62903   0.68257   0.00000  Uiso   1.00
Ni186  Ni    0.45440   0.37097   0.31763   0.00000  Uiso   1.00
Ni187  Ni    0.45440   0.37097   0.68257   0.00000  Uiso   1.00
Ni188  Ni    0.36317   0.50000   0.68258   0.00000  Uiso   1.00
Ni189  Ni    0.36317   0.50000   0.31763   0.00000  Uiso   1.00
Ni190  Ni    0.31755   0.62903   0.45449   0.00000  Uiso   1.00
Ni191  Ni    0.31754   0.50000   0.63696   0.00000  Uiso   1.00
Ni192  Ni    0.31754   0.50000   0.36325   0.00000  Uiso   1.00
Ni193  Ni    0.31755   0.62903   0.54572   0.00000  Uiso   1.00
Ni194  Ni    0.31755   0.37097   0.54572   0.00000  Uiso   1.00
Ni195  Ni    0.31755   0.37097   0.45449   0.00000  Uiso   1.00
Ni196  Ni    0.27193   0.50000   0.50010   0.00000  Uiso   1.00
Ni197  Ni    0.72810   0.56451   0.50010   0.00000  Uiso   1.00
Ni198  Ni    0.72810   0.43549   0.50010   0.00000  Uiso   1.00
Ni199  Ni    0.68250   0.56451   0.36325   0.00000  Uiso   1.00
Ni200  Ni    0.68250   0.43549   0.36325   0.00000  Uiso   1.00
Ni201  Ni    0.68250   0.56451   0.63696   0.00000  Uiso   1.00
Ni202  Ni    0.68250   0.43549   0.63696   0.00000  Uiso   1.00
Ni203  Ni    0.63687   0.69354   0.50010   0.00000  Uiso   1.00
Ni204  Ni    0.63687   0.56451   0.31763   0.00000  Uiso   1.00
Ni205  Ni    0.63687   0.43549   0.31763   0.00000  Uiso   1.00
Ni206  Ni    0.63687   0.30646   0.50010   0.00000  Uiso   1.00
Ni207  Ni    0.63687   0.56451   0.68258   0.00000  Uiso   1.00
Ni208  Ni    0.63687   0.43549   0.68258   0.00000  Uiso   1.00
Ni209  Ni    0.50002   0.69354   0.36325   0.00000  Uiso   1.00
Ni210  Ni    0.50002   0.69354   0.63696   0.00000  Uiso   1.00
Ni211  Ni    0.50002   0.56451   0.27202   0.00000  Uiso   1.00
Ni212  Ni    0.50002   0.43549   0.27202   0.00000  Uiso   1.00
Ni213  Ni    0.50002   0.30646   0.36325   0.00000  Uiso   1.00
Ni214  Ni    0.50002   0.30646   0.63696   0.00000  Uiso   1.00
Ni215  Ni    0.50002   0.56451   0.72819   0.00000  Uiso   1.00
Ni216  Ni    0.50002   0.43549   0.72819   0.00000  Uiso   1.00
Ni217  Ni    0.36317   0.69354   0.50010   0.00000  Uiso   1.00
Ni218  Ni    0.36317   0.56451   0.68258   0.00000  Uiso   1.00
Ni219  Ni    0.36317   0.56451   0.31763   0.00000  Uiso   1.00
Ni220  Ni    0.36317   0.43549   0.31763   0.00000  Uiso   1.00
Ni221  Ni    0.36317   0.30646   0.50010   0.00000  Uiso   1.00
Ni222  Ni    0.36317   0.43549   0.68258   0.00000  Uiso   1.00
Ni223  Ni    0.31754   0.56451   0.63696   0.00000  Uiso   1.00
Ni224  Ni    0.31754   0.43549   0.36325   0.00000  Uiso   1.00
Ni225  Ni    0.31754   0.56451   0.36325   0.00000  Uiso   1.00
Ni226  Ni    0.31754   0.43549   0.63696   0.00000  Uiso   1.00
Ni227  Ni    0.27193   0.43549   0.50010   0.00000  Uiso   1.00
Ni228  Ni    0.27193   0.56451   0.50010   0.00000  Uiso   1.00
Ni229  Ni    0.72811   0.50000   0.40886   0.00000  Uiso   1.00
Ni230  Ni    0.72811   0.50000   0.59134   0.00000  Uiso   1.00
Ni231  Ni    0.59126   0.50000   0.27201   0.00000  Uiso   1.00
Ni232  Ni    0.59126   0.50000   0.72819   0.00000  Uiso   1.00
Ni233  Ni    0.40878   0.50000   0.27201   0.00000  Uiso   1.00
Ni234  Ni    0.40878   0.50000   0.72819   0.00000  Uiso   1.00
Ni235  Ni    0.27193   0.50000   0.59134   0.00000  Uiso   1.00
Ni236  Ni    0.27193   0.50000   0.40886   0.00000  Uiso   1.00
Ni237  Ni    0.72811   0.56451   0.40886   0.00000  Uiso   1.00
Ni238  Ni    0.72811   0.43549   0.40886   0.00000  Uiso   1.00
Ni239  Ni    0.72811   0.56451   0.59134   0.00000  Uiso   1.00
Ni240  Ni    0.72811   0.43549   0.59134   0.00000  Uiso   1.00
Ni241  Ni    0.63687   0.69354   0.40887   0.00000  Uiso   1.00
Ni242  Ni    0.63687   0.69354   0.59133   0.00000  Uiso   1.00
Ni243  Ni    0.63687   0.30646   0.40887   0.00000  Uiso   1.00
Ni244  Ni    0.63687   0.30646   0.59133   0.00000  Uiso   1.00
Ni245  Ni    0.59125   0.69354   0.36325   0.00000  Uiso   1.00
Ni246  Ni    0.59126   0.56451   0.27201   0.00000  Uiso   1.00
Ni247  Ni    0.59126   0.43549   0.27201   0.00000  Uiso   1.00
Ni248  Ni    0.59125   0.69354   0.63696   0.00000  Uiso   1.00
Ni249  Ni    0.59125   0.30646   0.36325   0.00000  Uiso   1.00
Ni250  Ni    0.59126   0.56451   0.72819   0.00000  Uiso   1.00
Ni251  Ni    0.59125   0.30646   0.63696   0.00000  Uiso   1.00
Ni252  Ni    0.59126   0.43549   0.72819   0.00000  Uiso   1.00
Ni253  Ni    0.40879   0.69354   0.36325   0.00000  Uiso   1.00
Ni254  Ni    0.40879   0.69354   0.63696   0.00000  Uiso   1.00
Ni255  Ni    0.40878   0.56451   0.27201   0.00000  Uiso   1.00
Ni256  Ni    0.40878   0.56451   0.72819   0.00000  Uiso   1.00
Ni257  Ni    0.40878   0.43549   0.27201   0.00000  Uiso   1.00
Ni258  Ni    0.40879   0.30646   0.36325   0.00000  Uiso   1.00
Ni259  Ni    0.40878   0.43549   0.72819   0.00000  Uiso   1.00
Ni260  Ni    0.40879   0.30646   0.63696   0.00000  Uiso   1.00
Ni261  Ni    0.36317   0.69354   0.40887   0.00000  Uiso   1.00
Ni262  Ni    0.36317   0.69354   0.59133   0.00000  Uiso   1.00
Ni263  Ni    0.36317   0.30646   0.59133   0.00000  Uiso   1.00
Ni264  Ni    0.36317   0.30646   0.40887   0.00000  Uiso   1.00
Ni265  Ni    0.27193   0.56451   0.59134   0.00000  Uiso   1.00
Ni266  Ni    0.27193   0.43549   0.40886   0.00000  Uiso   1.00
Ni267  Ni    0.27193   0.43549   0.59134   0.00000  Uiso   1.00
Ni268  Ni    0.27193   0.56451   0.40886   0.00000  Uiso   1.00
Ni269  Ni    0.72810   0.62903   0.50010   0.00000  Uiso   1.00
Ni270  Ni    0.72810   0.37097   0.50010   0.00000  Uiso   1.00
Ni271  Ni    0.68250   0.62903   0.36325   0.00000  Uiso   1.00
Ni272  Ni    0.68250   0.37097   0.36325   0.00000  Uiso   1.00
Ni273  Ni    0.68250   0.62903   0.63696   0.00000  Uiso   1.00
Ni274  Ni    0.68250   0.37097   0.63696   0.00000  Uiso   1.00
Ni275  Ni    0.63687   0.62903   0.31763   0.00000  Uiso   1.00
Ni276  Ni    0.63687   0.37097   0.31763   0.00000  Uiso   1.00
Ni277  Ni    0.63687   0.62903   0.68258   0.00000  Uiso   1.00
Ni278  Ni    0.63687   0.37097   0.68258   0.00000  Uiso   1.00
Ni279  Ni    0.54564   0.75805   0.50010   0.00000  Uiso   1.00
Ni280  Ni    0.54564   0.24195   0.50010   0.00000  Uiso   1.00
Ni281  Ni    0.50002   0.62903   0.27202   0.00000  Uiso   1.00
Ni282  Ni    0.50002   0.75805   0.45448   0.00000  Uiso   1.00
Ni283  Ni    0.50002   0.75805   0.54572   0.00000  Uiso   1.00
Ni284  Ni    0.50002   0.37097   0.27202   0.00000  Uiso   1.00
Ni285  Ni    0.50002   0.24195   0.45448   0.00000  Uiso   1.00
Ni286  Ni    0.50002   0.62903   0.72819   0.00000  Uiso   1.00
Ni287  Ni    0.50002   0.24195   0.54572   0.00000  Uiso   1.00
Ni288  Ni    0.50002   0.37097   0.72819   0.00000  Uiso   1.00
Ni289  Ni    0.45440   0.75805   0.50010   0.00000  Uiso   1.00
Ni290  Ni    0.45440   0.24195   0.50010   0.00000  Uiso   1.00
Ni291  Ni    0.36317   0.62903   0.68258   0.00000  Uiso   1.00
Ni292  Ni    0.36317   0.62903   0.31763   0.00000  Uiso   1.00
Ni293  Ni    0.36317   0.37097   0.31763   0.00000  Uiso   1.00
Ni294  Ni    0.36317   0.37097   0.68258   0.00000  Uiso   1.00
Ni295  Ni    0.31754   0.62903   0.63696   0.00000  Uiso   1.00
Ni296  Ni    0.31754   0.62903   0.36325   0.00000  Uiso   1.00
Ni297  Ni    0.31754   0.37097   0.36325   0.00000  Uiso   1.00
Ni298  Ni    0.31754   0.37097   0.63696   0.00000  Uiso   1.00
Ni299  Ni    0.27193   0.62903   0.50010   0.00000  Uiso   1.00
Ni300  Ni    0.27193   0.37097   0.50010   0.00000  Uiso   1.00
Ni301  Ni    0.68249   0.69354   0.45449   0.00000  Uiso   1.00
Ni302  Ni    0.68249   0.69354   0.54572   0.00000  Uiso   1.00
Ni303  Ni    0.68249   0.30646   0.45449   0.00000  Uiso   1.00
Ni304  Ni    0.68249   0.30646   0.54572   0.00000  Uiso   1.00
Ni305  Ni    0.54563   0.69354   0.31763   0.00000  Uiso   1.00
Ni306  Ni    0.54563   0.69354   0.68257   0.00000  Uiso   1.00
Ni307  Ni    0.54563   0.30646   0.31763   0.00000  Uiso   1.00
Ni308  Ni    0.54563   0.30646   0.68257   0.00000  Uiso   1.00
Ni309  Ni    0.45440   0.69354   0.31763   0.00000  Uiso   1.00
Ni310  Ni    0.45440   0.69354   0.68257   0.00000  Uiso   1.00
Ni311  Ni    0.45440   0.30646   0.31763   0.00000  Uiso   1.00
Ni312  Ni    0.45440   0.30646   0.68257   0.00000  Uiso   1.00
Ni313  Ni    0.31755   0.69354   0.45449   0.00000  Uiso   1.00
Ni314  Ni    0.31755   0.69354   0.54572   0.00000  Uiso   1.00
Ni315  Ni    0.31755   0.30646   0.54572   0.00000  Uiso   1.00
Ni316  Ni    0.31755   0.30646   0.45449   0.00000  Uiso   1.00
Ni317  Ni    0.77373   0.50000   0.45448   0.00000  Uiso   1.00
Ni318  Ni    0.77373   0.50000   0.54572   0.00000  Uiso   1.00
Ni319  Ni    0.72811   0.62903   0.40886   0.00000  Uiso   1.00
Ni320  Ni    0.72811   0.37097   0.40886   0.00000  Uiso   1.00
Ni321  Ni    0.72811   0.62903   0.59134   0.00000  Uiso   1.00
Ni322  Ni    0.72811   0.37097   0.59134   0.00000  Uiso   1.00
Ni323  Ni    0.59126   0.75805   0.45449   0.00000  Uiso   1.00
Ni324  Ni    0.59126   0.75805   0.54572   0.00000  Uiso   1.00
Ni325  Ni    0.59126   0.62903   0.27201   0.00000  Uiso   1.00
Ni326  Ni    0.59126   0.37097   0.27201   0.00000  Uiso   1.00
Ni327  Ni    0.59126   0.62903   0.72819   0.00000  Uiso   1.00
Ni328  Ni    0.59126   0.24195   0.45449   0.00000  Uiso   1.00
Ni329  Ni    0.59126   0.24195   0.54572   0.00000  Uiso   1.00
Ni330  Ni    0.59126   0.37097   0.72819   0.00000  Uiso   1.00
Ni331  Ni    0.54563   0.75805   0.40886   0.00000  Uiso   1.00
Ni332  Ni    0.54564   0.50000   0.22640   0.00000  Uiso   1.00
Ni333  Ni    0.54563   0.75805   0.59134   0.00000  Uiso   1.00
Ni334  Ni    0.54563   0.24195   0.40886   0.00000  Uiso   1.00
Ni335  Ni    0.54564   0.50000   0.77381   0.00000  Uiso   1.00
Ni336  Ni    0.54563   0.24195   0.59134   0.00000  Uiso   1.00
Ni337  Ni    0.45440   0.75805   0.40886   0.00000  Uiso   1.00
Ni338  Ni    0.45440   0.75805   0.59134   0.00000  Uiso   1.00
Ni339  Ni    0.45440   0.50000   0.22640   0.00000  Uiso   1.00
Ni340  Ni    0.45440   0.50000   0.77381   0.00000  Uiso   1.00
Ni341  Ni    0.45440   0.24195   0.40886   0.00000  Uiso   1.00
Ni342  Ni    0.45440   0.24195   0.59134   0.00000  Uiso   1.00
Ni343  Ni    0.40878   0.75805   0.45449   0.00000  Uiso   1.00
Ni344  Ni    0.40878   0.75805   0.54572   0.00000  Uiso   1.00
Ni345  Ni    0.40878   0.62903   0.27201   0.00000  Uiso   1.00
Ni346  Ni    0.40878   0.62903   0.72819   0.00000  Uiso   1.00
Ni347  Ni    0.40878   0.24195   0.54572   0.00000  Uiso   1.00
Ni348  Ni    0.40878   0.24195   0.45449   0.00000  Uiso   1.00
Ni349  Ni    0.40878   0.37097   0.27201   0.00000  Uiso   1.00
Ni350  Ni    0.40878   0.37097   0.72819   0.00000  Uiso   1.00
Ni351  Ni    0.27193   0.62903   0.59134   0.00000  Uiso   1.00
Ni352  Ni    0.27193   0.62903   0.40886   0.00000  Uiso   1.00
Ni353  Ni    0.27193   0.37097   0.59134   0.00000  Uiso   1.00
Ni354  Ni    0.27193   0.37097   0.40886   0.00000  Uiso   1.00
Ni355  Ni    0.22631   0.50000   0.45448   0.00000  Uiso   1.00
Ni356  Ni    0.22631   0.50000   0.54572   0.00000  Uiso   1.00
Ni357  Ni    0.77373   0.56451   0.45448   0.00000  Uiso   1.00
Ni358  Ni    0.77373   0.43549   0.45448   0.00000  Uiso   1.00
Ni359  Ni    0.77373   0.56451   0.54572   0.00000  Uiso   1.00
Ni360  Ni    0.77373   0.43549   0.54572   0.00000  Uiso   1.00
Ni361  Ni    0.54564   0.56451   0.22640   0.00000  Uiso   1.00
Ni362  Ni    0.54564   0.43549   0.22640   0.00000  Uiso   1.00
Ni363  Ni    0.54564   0.43549   0.77381   0.00000  Uiso   1.00
Ni364  Ni    0.54564   0.56451   0.77381   0.00000  Uiso   1.00
Ni365  Ni    0.45440   0.56451   0.22640   0.00000  Uiso   1.00
Ni366  Ni    0.45440   0.43549   0.22640   0.00000  Uiso   1.00
Ni367  Ni    0.45440   0.56451   0.77381   0.00000  Uiso   1.00
Ni368  Ni    0.45440   0.43549   0.77381   0.00000  Uiso   1.00
Ni369  Ni    0.22631   0.56451   0.54572   0.00000  Uiso   1.00
Ni370  Ni    0.22631   0.56451   0.45448   0.00000  Uiso   1.00
Ni371  Ni    0.22631   0.43549   0.45448   0.00000  Uiso   1.00
Ni372  Ni    0.22631   0.43549   0.54572   0.00000  Uiso   1.00
Ni373  Ni    0.72811   0.50000   0.31763   0.00000  Uiso   1.00
Ni374  Ni    0.72811   0.50000   0.68257   0.00000  Uiso   1.00
Ni375  Ni    0.68249   0.50000   0.27201   0.00000  Uiso   1.00
Ni376  Ni    0.68249   0.50000   0.72819   0.00000  Uiso   1.00
Ni377  Ni    0.63687   0.75805   0.50010   0.00000  Uiso   1.00
Ni378  Ni    0.63687   0.24195   0.50010   0.00000  Uiso   1.00
Ni379  Ni    0.50002   0.75805   0.36325   0.00000  Uiso   1.00
Ni380  Ni    0.50002   0.75805   0.63696   0.00000  Uiso   1.00
Ni381  Ni    0.50002   0.24195   0.36325   0.00000  Uiso   1.00
Ni382  Ni    0.50002   0.24195   0.63696   0.00000  Uiso   1.00
Ni383  Ni    0.36317   0.75805   0.50010   0.00000  Uiso   1.00
Ni384  Ni    0.36317   0.24195   0.50010   0.00000  Uiso   1.00
Ni385  Ni    0.31755   0.50000   0.27201   0.00000  Uiso   1.00
Ni386  Ni    0.31755   0.50000   0.72819   0.00000  Uiso   1.00
Ni387  Ni    0.27193   0.50000   0.31763   0.00000  Uiso   1.00
Ni388  Ni    0.27193   0.50000   0.68257   0.00000  Uiso   1.00
Ni389  Ni    0.72810   0.69354   0.50010   0.00000  Uiso   1.00
Ni390  Ni    0.72811   0.56451   0.31763   0.00000  Uiso   1.00
Ni391  Ni    0.72810   0.30646   0.50010   0.00000  Uiso   1.00
Ni392  Ni    0.72811   0.43549   0.31763   0.00000  Uiso   1.00
Ni393  Ni    0.72811   0.56451   0.68257   0.00000  Uiso   1.00
Ni394  Ni    0.72811   0.43549   0.68257   0.00000  Uiso   1.00
Ni395  Ni    0.68250   0.69354   0.36325   0.00000  Uiso   1.00
Ni396  Ni    0.68250   0.69354   0.63696   0.00000  Uiso   1.00
Ni397  Ni    0.68250   0.30646   0.36325   0.00000  Uiso   1.00
Ni398  Ni    0.68249   0.43549   0.27201   0.00000  Uiso   1.00
Ni399  Ni    0.68249   0.56451   0.27201   0.00000  Uiso   1.00
Ni400  Ni    0.68250   0.30646   0.63696   0.00000  Uiso   1.00
Ni401  Ni    0.68249   0.56451   0.72819   0.00000  Uiso   1.00
Ni402  Ni    0.68249   0.43549   0.72819   0.00000  Uiso   1.00
Ni403  Ni    0.63687   0.69354   0.31763   0.00000  Uiso   1.00
Ni404  Ni    0.63687   0.30646   0.31763   0.00000  Uiso   1.00
Ni405  Ni    0.63687   0.69354   0.68258   0.00000  Uiso   1.00
Ni406  Ni    0.63687   0.30646   0.68258   0.00000  Uiso   1.00
Ni407  Ni    0.50002   0.69354   0.27202   0.00000  Uiso   1.00
Ni408  Ni    0.50002   0.69354   0.72819   0.00000  Uiso   1.00
Ni409  Ni    0.50002   0.30646   0.27202   0.00000  Uiso   1.00
Ni410  Ni    0.50002   0.30646   0.72819   0.00000  Uiso   1.00
Ni411  Ni    0.36317   0.69354   0.68258   0.00000  Uiso   1.00
Ni412  Ni    0.36317   0.69354   0.31763   0.00000  Uiso   1.00
Ni413  Ni    0.36317   0.30646   0.31763   0.00000  Uiso   1.00
Ni414  Ni    0.36317   0.30646   0.68258   0.00000  Uiso   1.00
Ni415  Ni    0.31754   0.69354   0.63696   0.00000  Uiso   1.00
Ni416  Ni    0.31754   0.69354   0.36325   0.00000  Uiso   1.00
Ni417  Ni    0.31755   0.43549   0.27201   0.00000  Uiso   1.00
Ni418  Ni    0.31755   0.56451   0.27201   0.00000  Uiso   1.00
Ni419  Ni    0.31755   0.56451   0.72819   0.00000  Uiso   1.00
Ni420  Ni    0.31755   0.43549   0.72819   0.00000  Uiso   1.00
Ni421  Ni    0.31754   0.30646   0.63696   0.00000  Uiso   1.00
Ni422  Ni    0.31754   0.30646   0.36325   0.00000  Uiso   1.00
Ni423  Ni    0.27193   0.56451   0.31763   0.00000  Uiso   1.00
Ni424  Ni    0.27193   0.56451   0.68257   0.00000  Uiso   1.00
Ni425  Ni    0.27193   0.69354   0.50010   0.00000  Uiso   1.00
Ni426  Ni    0.27193   0.43549   0.31763   0.00000  Uiso   1.00
Ni427  Ni    0.27193   0.43549   0.68257   0.00000  Uiso   1.00
Ni428  Ni    0.27193   0.30646   0.50010   0.00000  Uiso   1.00
Ni429  Ni    0.77373   0.62903   0.45448   0.00000  Uiso   1.00
Ni430  Ni    0.77373   0.62903   0.54572   0.00000  Uiso   1.00
Ni431  Ni    0.77373   0.50000   0.36325   0.00000  Uiso   1.00
Ni432  Ni    0.77373   0.37097   0.45448   0.00000  Uiso   1.00
Ni433  Ni    0.77373   0.37097   0.54572   0.00000  Uiso   1.00
Ni434  Ni    0.77373   0.50000   0.63696   0.00000  Uiso   1.00
Ni435  Ni    0.63687   0.75805   0.40887   0.00000  Uiso   1.00
Ni436  Ni    0.63687   0.75805   0.59133   0.00000  Uiso   1.00
Ni437  Ni    0.63687   0.24195   0.40887   0.00000  Uiso   1.00
Ni438  Ni    0.63687   0.50000   0.22640   0.00000  Uiso   1.00
Ni439  Ni    0.63687   0.24195   0.59133   0.00000  Uiso   1.00
Ni440  Ni    0.63687   0.50000   0.77381   0.00000  Uiso   1.00
Ni441  Ni    0.59125   0.75805   0.36325   0.00000  Uiso   1.00
Ni442  Ni    0.59125   0.75805   0.63696   0.00000  Uiso   1.00
Ni443  Ni    0.59125   0.24195   0.36325   0.00000  Uiso   1.00
Ni444  Ni    0.59125   0.24195   0.63696   0.00000  Uiso   1.00
Ni445  Ni    0.54564   0.62903   0.22640   0.00000  Uiso   1.00
Ni446  Ni    0.54564   0.37097   0.22640   0.00000  Uiso   1.00
Ni447  Ni    0.54564   0.37097   0.77381   0.00000  Uiso   1.00
Ni448  Ni    0.54564   0.62903   0.77381   0.00000  Uiso   1.00
Ni449  Ni    0.45440   0.62903   0.22640   0.00000  Uiso   1.00
Ni450  Ni    0.45440   0.62903   0.77381   0.00000  Uiso   1.00
Ni451  Ni    0.45440   0.37097   0.22640   0.00000  Uiso   1.00
Ni452  Ni    0.45440   0.37097   0.77381   0.00000  Uiso   1.00
Ni453  Ni    0.40879   0.75805   0.36325   0.00000  Uiso   1.00
Ni454  Ni    0.40879   0.75805   0.63696   0.00000  Uiso   1.00
Ni455  Ni    0.40879   0.24195   0.63696   0.00000  Uiso   1.00
Ni456  Ni    0.40879   0.24195   0.36325   0.00000  Uiso   1.00
Ni457  Ni    0.36317   0.75805   0.40887   0.00000  Uiso   1.00
Ni458  Ni    0.36317   0.75805   0.59133   0.00000  Uiso   1.00
Ni459  Ni    0.36317   0.50000   0.22640   0.00000  Uiso   1.00
Ni460  Ni    0.36317   0.50000   0.77381   0.00000  Uiso   1.00
Ni461  Ni    0.36317   0.24195   0.59133   0.00000  Uiso   1.00
Ni462  Ni    0.36317   0.24195   0.40887   0.00000  Uiso   1.00
Ni463  Ni    0.22631   0.50000   0.36325   0.00000  Uiso   1.00
Ni464  Ni    0.22631   0.62903   0.54572   0.00000  Uiso   1.00
Ni465  Ni    0.22631   0.62903   0.45448   0.00000  Uiso   1.00
Ni466  Ni    0.22631   0.50000   0.63696   0.00000  Uiso   1.00
Ni467  Ni    0.22631   0.37097   0.54572   0.00000  Uiso   1.00
Ni468  Ni    0.22631   0.37097   0.45448   0.00000  Uiso   1.00
Ni469  Ni    0.77373   0.56451   0.36325   0.00000  Uiso   1.00
Ni470  Ni    0.77373   0.43549   0.36325   0.00000  Uiso   1.00
Ni471  Ni    0.77373   0.56451   0.63696   0.00000  Uiso   1.00
Ni472  Ni    0.77373   0.43549   0.63696   0.00000  Uiso   1.00
Ni473  Ni    0.72811   0.69354   0.40886   0.00000  Uiso   1.00
Ni474  Ni    0.72811   0.69354   0.59134   0.00000  Uiso   1.00
Ni475  Ni    0.72811   0.30646   0.40886   0.00000  Uiso   1.00
Ni476  Ni    0.72811   0.30646   0.59134   0.00000  Uiso   1.00
Ni477  Ni    0.63687   0.56451   0.22640   0.00000  Uiso   1.00
Ni478  Ni    0.63687   0.43549   0.22640   0.00000  Uiso   1.00
Ni479  Ni    0.63687   0.43549   0.77381   0.00000  Uiso   1.00
Ni480  Ni    0.63687   0.56451   0.77381   0.00000  Uiso   1.00
Ni481  Ni    0.59126   0.69354   0.27201   0.00000  Uiso   1.00
Ni482  Ni    0.59126   0.30646   0.27201   0.00000  Uiso   1.00
Ni483  Ni    0.59126   0.69354   0.72819   0.00000  Uiso   1.00
Ni484  Ni    0.59126   0.30646   0.72819   0.00000  Uiso   1.00
Ni485  Ni    0.40878   0.69354   0.27201   0.00000  Uiso   1.00
Ni486  Ni    0.40878   0.69354   0.72819   0.00000  Uiso   1.00
Ni487  Ni    0.40878   0.30646   0.27201   0.00000  Uiso   1.00
Ni488  Ni    0.40878   0.30646   0.72819   0.00000  Uiso   1.00
Ni489  Ni    0.36317   0.56451   0.22640   0.00000  Uiso   1.00
Ni490  Ni    0.36317   0.43549   0.22640   0.00000  Uiso   1.00
Ni491  Ni    0.36317   0.43549   0.77381   0.00000  Uiso   1.00
Ni492  Ni    0.36317   0.56451   0.77381   0.00000  Uiso   1.00
Ni493  Ni    0.27193   0.69354   0.59134   0.00000  Uiso   1.00
Ni494  Ni    0.27193   0.69354   0.40886   0.00000  Uiso   1.00
Ni495  Ni    0.27193   0.30646   0.59134   0.00000  Uiso   1.00
Ni496  Ni    0.27193   0.30646   0.40886   0.00000  Uiso   1.00
Ni497  Ni    0.22631   0.56451   0.36325   0.00000  Uiso   1.00
Ni498  Ni    0.22631   0.43549   0.36325   0.00000  Uiso   1.00
Ni499  Ni    0.22631   0.56451   0.63696   0.00000  Uiso   1.00
Ni500  Ni    0.22631   0.43549   0.63696   0.00000  Uiso   1.00
Ni501  Ni    0.81935   0.50000   0.50010   0.00000  Uiso   1.00
Ni502  Ni    0.72811   0.62903   0.31763   0.00000  Uiso   1.00
Ni503  Ni    0.72811   0.37097   0.31763   0.00000  Uiso   1.00
Ni504  Ni    0.72811   0.62903   0.68257   0.00000  Uiso   1.00
Ni505  Ni    0.72811   0.37097   0.68257   0.00000  Uiso   1.00
Ni506  Ni    0.68249   0.75805   0.45449   0.00000  Uiso   1.00
Ni507  Ni    0.68249   0.75805   0.54572   0.00000  Uiso   1.00
Ni508  Ni    0.68249   0.62903   0.27201   0.00000  Uiso   1.00
Ni509  Ni    0.68249   0.24195   0.45449   0.00000  Uiso   1.00
Ni510  Ni    0.68249   0.24195   0.54572   0.00000  Uiso   1.00
Ni511  Ni    0.68249   0.37097   0.27201   0.00000  Uiso   1.00
Ni512  Ni    0.68249   0.62903   0.72819   0.00000  Uiso   1.00
Ni513  Ni    0.68249   0.37097   0.72819   0.00000  Uiso   1.00
Ni514  Ni    0.54563   0.75805   0.31763   0.00000  Uiso   1.00
Ni515  Ni    0.54563   0.75805   0.68257   0.00000  Uiso   1.00
Ni516  Ni    0.54563   0.24195   0.31763   0.00000  Uiso   1.00
Ni517  Ni    0.54563   0.24195   0.68257   0.00000  Uiso   1.00
Ni518  Ni    0.50002   0.50000   0.18077   0.00000  Uiso   1.00
Ni519  Ni    0.50002   0.50000   0.81943   0.00000  Uiso   1.00
Ni520  Ni    0.45440   0.75805   0.31763   0.00000  Uiso   1.00
Ni521  Ni    0.45440   0.75805   0.68257   0.00000  Uiso   1.00
Ni522  Ni    0.45440   0.24195   0.31763   0.00000  Uiso   1.00
Ni523  Ni    0.45440   0.24195   0.68257   0.00000  Uiso   1.00
Ni524  Ni    0.31755   0.75805   0.54572   0.00000  Uiso   1.00
Ni525  Ni    0.31755   0.75805   0.45449   0.00000  Uiso   1.00
Ni526  Ni    0.31755   0.62903   0.27201   0.00000  Uiso   1.00
Ni527  Ni    0.31755   0.62903   0.72819   0.00000  Uiso   1.00
Ni528  Ni    0.31755   0.37097   0.27201   0.00000  Uiso   1.00
Ni529  Ni    0.31755   0.24195   0.54572   0.00000  Uiso   1.00
Ni530  Ni    0.31755   0.37097   0.72819   0.00000  Uiso   1.00
Ni531  Ni    0.31755   0.24195   0.45449   0.00000  Uiso   1.00
Ni532  Ni    0.27193   0.62903   0.31763   0.00000  Uiso   1.00
Ni533  Ni    0.27193   0.62903   0.68257   0.00000  Uiso   1.00
Ni534  Ni    0.27193   0.37097   0.31763   0.00000  Uiso   1.00
Ni535  Ni    0.27193   0.37097   0.68257   0.00000  Uiso   1.00
Ni536  Ni    0.18069   0.50000   0.50010   0.00000  Uiso   1.00
Ni537  Ni    0.81935   0.56451   0.50010   0.00000  Uiso   1.00
Ni538  Ni    0.81935   0.43549   0.50010   0.00000  Uiso   1.00
Ni539  Ni    0.54564   0.82257   0.50010   0.00000  Uiso   1.00
Ni540  Ni    0.54564   0.17743   0.50010   0.00000  Uiso   1.00
Ni541  Ni    0.50002   0.43549   0.18077   0.00000  Uiso   1.00
Ni542  Ni    0.50002   0.82257   0.54572   0.00000  Uiso   1.00
Ni543  Ni    0.50002   0.56451   0.18077   0.00000  Uiso   1.00
Ni544  Ni    0.50002   0.82257   0.45448   0.00000  Uiso   1.00
Ni545  Ni    0.50002   0.56451   0.81943   0.00000  Uiso   1.00
Ni546  Ni    0.50002   0.17743   0.54572   0.00000  Uiso   1.00
Ni547  Ni    0.50002   0.17743   0.45448   0.00000  Uiso   1.00
Ni548  Ni    0.50002   0.43549   0.81943   0.00000  Uiso   1.00
Ni549  Ni    0.45440   0.82257   0.50010   0.00000  Uiso   1.00
Ni550  Ni    0.45440   0.17743   0.50010   0.00000  Uiso   1.00
Ni551  Ni    0.18069   0.56451   0.50010   0.00000  Uiso   1.00
Ni552  Ni    0.18069   0.43549   0.50010   0.00000  Uiso   1.00
Ni553  Ni    0.81934   0.50000   0.40886   0.00000  Uiso   1.00
Ni554  Ni    0.81934   0.50000   0.59134   0.00000  Uiso   1.00
Ni563  Ni    0.59126   0.50000   0.18078   0.00000  Uiso   1.00
Ni564  Ni    0.59126   0.50000   0.81942   0.00000  Uiso   1.00
Ni565  Ni    0.40878   0.50000   0.18078   0.00000  Uiso   1.00
Ni566  Ni    0.40878   0.50000   0.81942   0.00000  Uiso   1.00
Ni575  Ni    0.18070   0.50000   0.40886   0.00000  Uiso   1.00
Ni576  Ni    0.18070   0.50000   0.59134   0.00000  Uiso   1.00
Pt577  Pt    0.50002   0.50000   0.50010   0.00000  Uiso   1.00
Pt578  Pt    0.52283   0.46774   0.52291   0.00000  Uiso   1.00
Pt579  Pt    0.52283   0.46774   0.47729   0.00000  Uiso   1.00
Pt580  Pt    0.52283   0.53226   0.47729   0.00000  Uiso   1.00
Pt581  Pt    0.47721   0.46774   0.52291   0.00000  Uiso   1.00
Pt582  Pt    0.47721   0.46774   0.47729   0.00000  Uiso   1.00
Pt583  Pt    0.52283   0.53226   0.52291   0.00000  Uiso   1.00
Pt584  Pt    0.47721   0.53226   0.47729   0.00000  Uiso   1.00
Pt585  Pt    0.47721   0.53226   0.52291   0.00000  Uiso   1.00
Pt586  Pt    0.45440   0.50000   0.54572   0.00000  Uiso   1.00
Pt587  Pt    0.50002   0.56451   0.50010   0.00000  Uiso   1.00
Pt588  Pt    0.45440   0.50000   0.45449   0.00000  Uiso   1.00
Pt589  Pt    0.54563   0.50000   0.54572   0.00000  Uiso   1.00
Pt590  Pt    0.50002   0.43549   0.50010   0.00000  Uiso   1.00
Pt591  Pt    0.54563   0.50000   0.45449   0.00000  Uiso   1.00
Pt592  Pt    0.47721   0.46774   0.56853   0.00000  Uiso   1.00
Pt593  Pt    0.47721   0.46774   0.43168   0.00000  Uiso   1.00
Pt594  Pt    0.56845   0.46774   0.52291   0.00000  Uiso   1.00
Pt595  Pt    0.56845   0.46774   0.47730   0.00000  Uiso   1.00
Pt596  Pt    0.43159   0.46774   0.52291   0.00000  Uiso   1.00
Pt597  Pt    0.47721   0.53226   0.56853   0.00000  Uiso   1.00
Pt598  Pt    0.43159   0.46774   0.47730   0.00000  Uiso   1.00
Pt599  Pt    0.56845   0.53226   0.52291   0.00000  Uiso   1.00
Pt600  Pt    0.47721   0.53226   0.43168   0.00000  Uiso   1.00
Pt601  Pt    0.56845   0.53226   0.47730   0.00000  Uiso   1.00
Pt602  Pt    0.52282   0.46774   0.43168   0.00000  Uiso   1.00
Pt603  Pt    0.52282   0.46774   0.56853   0.00000  Uiso   1.00
Pt604  Pt    0.43159   0.53226   0.47730   0.00000  Uiso   1.00
Pt605  Pt    0.43159   0.53226   0.52291   0.00000  Uiso   1.00
Pt606  Pt    0.52282   0.53226   0.56853   0.00000  Uiso   1.00
Pt607  Pt    0.52282   0.53226   0.43168   0.00000  Uiso   1.00
Pt608  Pt    0.40879   0.50000   0.50010   0.00000  Uiso   1.00
Pt609  Pt    0.54563   0.56451   0.45449   0.00000  Uiso   1.00
Pt610  Pt    0.45440   0.56451   0.45449   0.00000  Uiso   1.00
Pt611  Pt    0.54563   0.56451   0.54572   0.00000  Uiso   1.00
Pt612  Pt    0.45440   0.43549   0.54572   0.00000  Uiso   1.00
Pt613  Pt    0.45440   0.43549   0.45449   0.00000  Uiso   1.00
Pt614  Pt    0.45440   0.56451   0.54572   0.00000  Uiso   1.00
Pt615  Pt    0.50002   0.50000   0.59133   0.00000  Uiso   1.00
Pt616  Pt    0.59125   0.50000   0.50010   0.00000  Uiso   1.00
Pt617  Pt    0.50002   0.50000   0.40887   0.00000  Uiso   1.00
Pt618  Pt    0.54563   0.43549   0.45449   0.00000  Uiso   1.00
Pt619  Pt    0.54563   0.43549   0.54572   0.00000  Uiso   1.00
Pt620  Pt    0.56845   0.46774   0.43168   0.00000  Uiso   1.00
Pt621  Pt    0.52283   0.40323   0.47729   0.00000  Uiso   1.00
Pt622  Pt    0.52283   0.40323   0.52291   0.00000  Uiso   1.00
Pt623  Pt    0.56845   0.46774   0.56853   0.00000  Uiso   1.00
Pt624  Pt    0.56845   0.53226   0.43168   0.00000  Uiso   1.00
Pt625  Pt    0.56845   0.53226   0.56853   0.00000  Uiso   1.00
Pt626  Pt    0.47721   0.40323   0.47729   0.00000  Uiso   1.00
Pt627  Pt    0.47721   0.40323   0.52291   0.00000  Uiso   1.00
Pt628  Pt    0.52283   0.59677   0.47729   0.00000  Uiso   1.00
Pt629  Pt    0.52283   0.59677   0.52291   0.00000  Uiso   1.00
Pt630  Pt    0.43159   0.46774   0.43168   0.00000  Uiso   1.00
Pt631  Pt    0.43159   0.46774   0.56853   0.00000  Uiso   1.00
Pt632  Pt    0.43159   0.53226   0.56853   0.00000  Uiso   1.00
Pt633  Pt    0.43159   0.53226   0.43168   0.00000  Uiso   1.00
Pt634  Pt    0.47721   0.59677   0.47729   0.00000  Uiso   1.00
Pt635  Pt    0.47721   0.59677   0.52291   0.00000  Uiso   1.00
Pt636  Pt    0.59125   0.56451   0.50010   0.00000  Uiso   1.00
Pt637  Pt    0.50002   0.56451   0.40887   0.00000  Uiso   1.00
Pt638  Pt    0.40879   0.43549   0.50010   0.00000  Uiso   1.00
Pt639  Pt    0.40879   0.56451   0.50010   0.00000  Uiso   1.00
Pt640  Pt    0.50002   0.56451   0.59133   0.00000  Uiso   1.00
Pt641  Pt    0.50002   0.43549   0.40887   0.00000  Uiso   1.00
Pt642  Pt    0.59125   0.43549   0.50010   0.00000  Uiso   1.00
Pt643  Pt    0.50002   0.43549   0.59133   0.00000  Uiso   1.00
Pt644  Pt    0.52283   0.46774   0.38606   0.00000  Uiso   1.00
Pt645  Pt    0.61406   0.46774   0.47729   0.00000  Uiso   1.00
Pt646  Pt    0.61406   0.46774   0.52291   0.00000  Uiso   1.00
Pt647  Pt    0.52283   0.46774   0.61414   0.00000  Uiso   1.00
Pt648  Pt    0.47721   0.40323   0.56853   0.00000  Uiso   1.00
Pt649  Pt    0.47721   0.40323   0.43168   0.00000  Uiso   1.00
Pt650  Pt    0.56845   0.40323   0.47730   0.00000  Uiso   1.00
Pt651  Pt    0.56845   0.40323   0.52291   0.00000  Uiso   1.00
Pt652  Pt    0.52283   0.53226   0.38606   0.00000  Uiso   1.00
Pt653  Pt    0.61406   0.53226   0.47729   0.00000  Uiso   1.00
Pt654  Pt    0.61406   0.53226   0.52291   0.00000  Uiso   1.00
Pt655  Pt    0.43159   0.40323   0.47730   0.00000  Uiso   1.00
Pt656  Pt    0.52283   0.53226   0.61414   0.00000  Uiso   1.00
Pt657  Pt    0.43159   0.40323   0.52291   0.00000  Uiso   1.00
Pt658  Pt    0.52282   0.40323   0.43168   0.00000  Uiso   1.00
Pt659  Pt    0.52282   0.40323   0.56853   0.00000  Uiso   1.00
Pt660  Pt    0.38598   0.46774   0.52291   0.00000  Uiso   1.00
Pt661  Pt    0.56845   0.59677   0.47730   0.00000  Uiso   1.00
Pt662  Pt    0.38598   0.46774   0.47729   0.00000  Uiso   1.00
Pt663  Pt    0.56845   0.59677   0.52291   0.00000  Uiso   1.00
Pt664  Pt    0.47721   0.59677   0.43168   0.00000  Uiso   1.00
Pt665  Pt    0.47721   0.46774   0.38606   0.00000  Uiso   1.00
Pt666  Pt    0.47721   0.59677   0.56853   0.00000  Uiso   1.00
Pt667  Pt    0.47721   0.46774   0.61414   0.00000  Uiso   1.00
Pt668  Pt    0.38598   0.53226   0.52291   0.00000  Uiso   1.00
Pt669  Pt    0.38598   0.53226   0.47729   0.00000  Uiso   1.00
Pt670  Pt    0.52282   0.59677   0.43168   0.00000  Uiso   1.00
Pt671  Pt    0.43159   0.59677   0.47730   0.00000  Uiso   1.00
Pt672  Pt    0.43159   0.59677   0.52291   0.00000  Uiso   1.00
Pt673  Pt    0.52282   0.59677   0.56853   0.00000  Uiso   1.00
Pt674  Pt    0.47721   0.53226   0.38606   0.00000  Uiso   1.00
Pt675  Pt    0.47721   0.53226   0.61414   0.00000  Uiso   1.00
Pt676  Pt    0.50002   0.62903   0.50010   0.00000  Uiso   1.00
Pt677  Pt    0.59126   0.50000   0.40886   0.00000  Uiso   1.00
Pt678  Pt    0.40878   0.50000   0.59134   0.00000  Uiso   1.00
Pt679  Pt    0.40878   0.50000   0.40886   0.00000  Uiso   1.00
Pt680  Pt    0.59126   0.50000   0.59134   0.00000  Uiso   1.00
Pt681  Pt    0.50002   0.37097   0.50010   0.00000  Uiso   1.00
Pt682  Pt    0.56845   0.40323   0.43168   0.00000  Uiso   1.00
Pt683  Pt    0.56845   0.40323   0.56853   0.00000  Uiso   1.00
Pt684  Pt    0.61407   0.46774   0.43168   0.00000  Uiso   1.00
Pt685  Pt    0.43159   0.46774   0.38605   0.00000  Uiso   1.00
Pt686  Pt    0.43159   0.46774   0.61415   0.00000  Uiso   1.00
Pt687  Pt    0.61407   0.46774   0.56853   0.00000  Uiso   1.00
Pt688  Pt    0.61407   0.53226   0.43168   0.00000  Uiso   1.00
Pt689  Pt    0.56845   0.46774   0.38605   0.00000  Uiso   1.00
Pt690  Pt    0.56845   0.59677   0.43168   0.00000  Uiso   1.00
Pt691  Pt    0.56845   0.59677   0.56853   0.00000  Uiso   1.00
Pt692  Pt    0.43159   0.53226   0.38605   0.00000  Uiso   1.00
Pt693  Pt    0.43159   0.53226   0.61415   0.00000  Uiso   1.00
Pt694  Pt    0.38597   0.46774   0.43168   0.00000  Uiso   1.00
Pt695  Pt    0.38597   0.46774   0.56853   0.00000  Uiso   1.00
Pt696  Pt    0.43159   0.40323   0.56853   0.00000  Uiso   1.00
Pt697  Pt    0.61407   0.53226   0.56853   0.00000  Uiso   1.00
Pt698  Pt    0.43159   0.40323   0.43168   0.00000  Uiso   1.00
Pt699  Pt    0.56845   0.46774   0.61415   0.00000  Uiso   1.00
Pt700  Pt    0.56845   0.53226   0.38605   0.00000  Uiso   1.00
Pt701  Pt    0.38597   0.53226   0.56853   0.00000  Uiso   1.00
Pt702  Pt    0.38597   0.53226   0.43168   0.00000  Uiso   1.00
Pt703  Pt    0.56845   0.53226   0.61415   0.00000  Uiso   1.00
Pt704  Pt    0.43159   0.59677   0.43168   0.00000  Uiso   1.00
Pt705  Pt    0.43159   0.59677   0.56853   0.00000  Uiso   1.00
Pt706  Pt    0.54563   0.62903   0.45449   0.00000  Uiso   1.00
Pt707  Pt    0.54563   0.62903   0.54572   0.00000  Uiso   1.00
Pt708  Pt    0.45440   0.62903   0.45449   0.00000  Uiso   1.00
Pt709  Pt    0.45440   0.62903   0.54572   0.00000  Uiso   1.00
Pt710  Pt    0.59126   0.56451   0.40886   0.00000  Uiso   1.00
Pt711  Pt    0.54564   0.50000   0.36325   0.00000  Uiso   1.00
Pt712  Pt    0.63687   0.50000   0.45448   0.00000  Uiso   1.00
Pt713  Pt    0.59126   0.43549   0.40886   0.00000  Uiso   1.00
Pt714  Pt    0.36317   0.50000   0.54572   0.00000  Uiso   1.00
Pt715  Pt    0.36317   0.50000   0.45448   0.00000  Uiso   1.00
Pt716  Pt    0.40878   0.56451   0.40886   0.00000  Uiso   1.00
Pt717  Pt    0.45440   0.50000   0.63696   0.00000  Uiso   1.00
Pt718  Pt    0.45440   0.37097   0.54572   0.00000  Uiso   1.00
Pt719  Pt    0.40878   0.43549   0.40886   0.00000  Uiso   1.00
Pt720  Pt    0.54564   0.50000   0.63696   0.00000  Uiso   1.00
Pt721  Pt    0.45440   0.37097   0.45449   0.00000  Uiso   1.00
Pt722  Pt    0.45440   0.50000   0.36325   0.00000  Uiso   1.00
Pt723  Pt    0.40878   0.56451   0.59134   0.00000  Uiso   1.00
Pt724  Pt    0.40878   0.43549   0.59134   0.00000  Uiso   1.00
Pt725  Pt    0.59126   0.56451   0.59134   0.00000  Uiso   1.00
Pt726  Pt    0.54563   0.37097   0.45449   0.00000  Uiso   1.00
Pt727  Pt    0.59126   0.43549   0.59134   0.00000  Uiso   1.00
Pt728  Pt    0.63687   0.50000   0.54572   0.00000  Uiso   1.00
Pt729  Pt    0.54563   0.37097   0.54572   0.00000  Uiso   1.00
Pt730  Pt    0.52283   0.40323   0.38606   0.00000  Uiso   1.00
Pt731  Pt    0.61406   0.40323   0.47729   0.00000  Uiso   1.00
Pt732  Pt    0.52283   0.40323   0.61414   0.00000  Uiso   1.00
Pt733  Pt    0.61406   0.40323   0.52291   0.00000  Uiso   1.00
Pt734  Pt    0.61406   0.59677   0.52291   0.00000  Uiso   1.00
Pt735  Pt    0.61406   0.59677   0.47729   0.00000  Uiso   1.00
Pt736  Pt    0.52283   0.59677   0.38606   0.00000  Uiso   1.00
Pt737  Pt    0.52283   0.59677   0.61414   0.00000  Uiso   1.00
Pt738  Pt    0.38598   0.40323   0.47729   0.00000  Uiso   1.00
Pt739  Pt    0.38598   0.40323   0.52291   0.00000  Uiso   1.00
Pt740  Pt    0.47721   0.40323   0.38606   0.00000  Uiso   1.00
Pt741  Pt    0.47721   0.40323   0.61414   0.00000  Uiso   1.00
Pt742  Pt    0.47721   0.59677   0.38606   0.00000  Uiso   1.00
Pt743  Pt    0.38598   0.59677   0.52291   0.00000  Uiso   1.00
Pt744  Pt    0.47721   0.59677   0.61414   0.00000  Uiso   1.00
Pt745  Pt    0.38598   0.59677   0.47729   0.00000  Uiso   1.00
Pt746  Pt    0.50002   0.62903   0.40887   0.00000  Uiso   1.00
Pt747  Pt    0.59125   0.62903   0.50010   0.00000  Uiso   1.00
Pt748  Pt    0.50002   0.62903   0.59133   0.00000  Uiso   1.00
Pt749  Pt    0.40879   0.62903   0.50010   0.00000  Uiso   1.00
Pt750  Pt    0.63687   0.56451   0.45448   0.00000  Uiso   1.00
Pt751  Pt    0.54564   0.56451   0.36325   0.00000  Uiso   1.00
Pt752  Pt    0.54564   0.43549   0.36325   0.00000  Uiso   1.00
Pt753  Pt    0.63687   0.43549   0.45448   0.00000  Uiso   1.00
Pt754  Pt    0.45440   0.56451   0.36325   0.00000  Uiso   1.00
Pt755  Pt    0.36317   0.56451   0.45448   0.00000  Uiso   1.00
Pt756  Pt    0.36317   0.43549   0.45448   0.00000  Uiso   1.00
Pt757  Pt    0.36317   0.43549   0.54572   0.00000  Uiso   1.00
Pt758  Pt    0.63687   0.56451   0.54572   0.00000  Uiso   1.00
Pt759  Pt    0.36317   0.56451   0.54572   0.00000  Uiso   1.00
Pt760  Pt    0.40879   0.37097   0.50010   0.00000  Uiso   1.00
Pt761  Pt    0.54564   0.56451   0.63696   0.00000  Uiso   1.00
Pt762  Pt    0.54564   0.43549   0.63696   0.00000  Uiso   1.00
Pt763  Pt    0.50002   0.37097   0.40887   0.00000  Uiso   1.00
Pt764  Pt    0.45440   0.43549   0.36325   0.00000  Uiso   1.00
Pt765  Pt    0.45440   0.43549   0.63696   0.00000  Uiso   1.00
Pt766  Pt    0.50002   0.37097   0.59133   0.00000  Uiso   1.00
Pt767  Pt    0.45440   0.56451   0.63696   0.00000  Uiso   1.00
Pt768  Pt    0.63687   0.43549   0.54572   0.00000  Uiso   1.00
Pt769  Pt    0.59125   0.37097   0.50010   0.00000  Uiso   1.00
Pt770  Pt    0.61406   0.46774   0.38606   0.00000  Uiso   1.00
Pt771  Pt    0.52283   0.33872   0.52291   0.00000  Uiso   1.00
Pt772  Pt    0.52283   0.33872   0.47729   0.00000  Uiso   1.00
Pt773  Pt    0.61406   0.46774   0.61414   0.00000  Uiso   1.00
Pt774  Pt    0.61406   0.53226   0.38606   0.00000  Uiso   1.00
Pt775  Pt    0.65968   0.46774   0.47729   0.00000  Uiso   1.00
Pt776  Pt    0.47721   0.46774   0.34044   0.00000  Uiso   1.00
Pt777  Pt    0.61407   0.40323   0.43168   0.00000  Uiso   1.00
Pt778  Pt    0.47721   0.33872   0.47729   0.00000  Uiso   1.00
Pt779  Pt    0.47721   0.33872   0.52291   0.00000  Uiso   1.00
Pt780  Pt    0.65968   0.46774   0.52291   0.00000  Uiso   1.00
Pt781  Pt    0.47721   0.46774   0.65977   0.00000  Uiso   1.00
Pt782  Pt    0.61406   0.53226   0.61414   0.00000  Uiso   1.00
Pt783  Pt    0.43159   0.40323   0.38605   0.00000  Uiso   1.00
Pt784  Pt    0.43159   0.40323   0.61415   0.00000  Uiso   1.00
Pt785  Pt    0.61407   0.40323   0.56853   0.00000  Uiso   1.00
Pt786  Pt    0.65968   0.53226   0.47729   0.00000  Uiso   1.00
Pt787  Pt    0.47721   0.53226   0.34044   0.00000  Uiso   1.00
Pt788  Pt    0.56845   0.40323   0.38605   0.00000  Uiso   1.00
Pt789  Pt    0.65968   0.53226   0.52291   0.00000  Uiso   1.00
Pt790  Pt    0.38597   0.40323   0.43168   0.00000  Uiso   1.00
Pt791  Pt    0.47721   0.53226   0.65977   0.00000  Uiso   1.00
Pt792  Pt    0.38597   0.40323   0.56853   0.00000  Uiso   1.00
Pt793  Pt    0.56845   0.40323   0.61415   0.00000  Uiso   1.00
Pt794  Pt    0.61407   0.59677   0.43168   0.00000  Uiso   1.00
Pt795  Pt    0.52283   0.46774   0.34044   0.00000  Uiso   1.00
Pt796  Pt    0.34035   0.46774   0.52291   0.00000  Uiso   1.00
Pt797  Pt    0.43159   0.59677   0.38605   0.00000  Uiso   1.00
Pt798  Pt    0.34035   0.46774   0.47729   0.00000  Uiso   1.00
Pt799  Pt    0.61407   0.59677   0.56853   0.00000  Uiso   1.00
Pt800  Pt    0.52283   0.46774   0.65977   0.00000  Uiso   1.00
Pt801  Pt    0.43159   0.59677   0.61415   0.00000  Uiso   1.00
Pt802  Pt    0.52283   0.66128   0.47729   0.00000  Uiso   1.00
Pt803  Pt    0.52283   0.66128   0.52291   0.00000  Uiso   1.00
Pt804  Pt    0.52283   0.53226   0.34044   0.00000  Uiso   1.00
Pt805  Pt    0.56845   0.59677   0.38605   0.00000  Uiso   1.00
Pt806  Pt    0.38598   0.46774   0.38606   0.00000  Uiso   1.00
Pt807  Pt    0.38598   0.46774   0.61414   0.00000  Uiso   1.00
Pt808  Pt    0.34035   0.53226   0.52291   0.00000  Uiso   1.00
Pt809  Pt    0.34035   0.53226   0.47729   0.00000  Uiso   1.00
Pt810  Pt    0.38597   0.59677   0.43168   0.00000  Uiso   1.00
Pt811  Pt    0.52283   0.53226   0.65977   0.00000  Uiso   1.00
Pt812  Pt    0.56845   0.59677   0.61415   0.00000  Uiso   1.00
Pt813  Pt    0.38597   0.59677   0.56853   0.00000  Uiso   1.00
Pt814  Pt    0.47721   0.66128   0.47729   0.00000  Uiso   1.00
Pt815  Pt    0.47721   0.66128   0.52291   0.00000  Uiso   1.00
Pt816  Pt    0.38598   0.53226   0.38606   0.00000  Uiso   1.00
Pt817  Pt    0.38598   0.53226   0.61414   0.00000  Uiso   1.00
Pt818  Pt    0.56845   0.46774   0.34044   0.00000  Uiso   1.00
Pt819  Pt    0.65968   0.46774   0.43168   0.00000  Uiso   1.00
Pt820  Pt    0.47721   0.33872   0.43168   0.00000  Uiso   1.00
Pt821  Pt    0.47721   0.33872   0.56853   0.00000  Uiso   1.00
Pt822  Pt    0.56845   0.33872   0.47730   0.00000  Uiso   1.00
Pt823  Pt    0.56845   0.46774   0.65976   0.00000  Uiso   1.00
Pt824  Pt    0.65968   0.46774   0.56853   0.00000  Uiso   1.00
Pt825  Pt    0.56845   0.33872   0.52291   0.00000  Uiso   1.00
Pt826  Pt    0.65968   0.53226   0.43168   0.00000  Uiso   1.00
Pt827  Pt    0.56845   0.53226   0.34044   0.00000  Uiso   1.00
Pt828  Pt    0.43159   0.33872   0.52291   0.00000  Uiso   1.00
Pt829  Pt    0.43159   0.33872   0.47730   0.00000  Uiso   1.00
Pt830  Pt    0.52282   0.33872   0.43168   0.00000  Uiso   1.00
Pt831  Pt    0.52282   0.33872   0.56853   0.00000  Uiso   1.00
Pt832  Pt    0.56845   0.53226   0.65976   0.00000  Uiso   1.00
Pt833  Pt    0.65968   0.53226   0.56853   0.00000  Uiso   1.00
Pt834  Pt    0.56845   0.66128   0.47730   0.00000  Uiso   1.00
Pt835  Pt    0.47721   0.66128   0.43168   0.00000  Uiso   1.00
Pt836  Pt    0.56845   0.66128   0.52291   0.00000  Uiso   1.00
Pt837  Pt    0.47721   0.66128   0.56853   0.00000  Uiso   1.00
Pt838  Pt    0.34036   0.46774   0.56853   0.00000  Uiso   1.00
Pt839  Pt    0.34036   0.46774   0.43168   0.00000  Uiso   1.00
Pt840  Pt    0.43159   0.46774   0.34044   0.00000  Uiso   1.00
Pt841  Pt    0.43159   0.46774   0.65976   0.00000  Uiso   1.00
Pt842  Pt    0.52282   0.66128   0.43168   0.00000  Uiso   1.00
Pt843  Pt    0.52282   0.66128   0.56853   0.00000  Uiso   1.00
Pt844  Pt    0.43159   0.66128   0.47730   0.00000  Uiso   1.00
Pt845  Pt    0.43159   0.66128   0.52291   0.00000  Uiso   1.00
Pt846  Pt    0.34036   0.53226   0.43168   0.00000  Uiso   1.00
Pt847  Pt    0.34036   0.53226   0.56853   0.00000  Uiso   1.00
Pt848  Pt    0.43159   0.53226   0.34044   0.00000  Uiso   1.00
Pt849  Pt    0.43159   0.53226   0.65976   0.00000  Uiso   1.00
Pt850  Pt    0.59126   0.62903   0.40886   0.00000  Uiso   1.00
Pt851  Pt    0.40878   0.62903   0.40886   0.00000  Uiso   1.00
Pt852  Pt    0.50002   0.50000   0.31763   0.00000  Uiso   1.00
Pt853  Pt    0.40878   0.62903   0.59134   0.00000  Uiso   1.00
Pt854  Pt    0.59126   0.62903   0.59134   0.00000  Uiso   1.00
Pt855  Pt    0.59126   0.37097   0.40886   0.00000  Uiso   1.00
Pt856  Pt    0.31754   0.50000   0.50010   0.00000  Uiso   1.00
Pt857  Pt    0.68250   0.50000   0.50010   0.00000  Uiso   1.00
Pt858  Pt    0.50002   0.50000   0.68258   0.00000  Uiso   1.00
Pt859  Pt    0.40878   0.37097   0.40886   0.00000  Uiso   1.00
Pt860  Pt    0.40878   0.37097   0.59134   0.00000  Uiso   1.00
Pt861  Pt    0.59126   0.37097   0.59134   0.00000  Uiso   1.00
Pt862  Pt    0.61406   0.40323   0.38606   0.00000  Uiso   1.00
Pt863  Pt    0.56845   0.33872   0.43168   0.00000  Uiso   1.00
Pt864  Pt    0.56845   0.33872   0.56853   0.00000  Uiso   1.00
Pt865  Pt    0.61406   0.40323   0.61414   0.00000  Uiso   1.00
Pt866  Pt    0.65968   0.40323   0.47729   0.00000  Uiso   1.00
Pt867  Pt    0.47721   0.40323   0.34044   0.00000  Uiso   1.00
Pt868  Pt    0.65968   0.40323   0.52291   0.00000  Uiso   1.00
Pt869  Pt    0.47721   0.40323   0.65977   0.00000  Uiso   1.00
Pt870  Pt    0.61406   0.59677   0.38606   0.00000  Uiso   1.00
Pt871  Pt    0.43159   0.33872   0.43168   0.00000  Uiso   1.00
Pt872  Pt    0.43159   0.33872   0.56853   0.00000  Uiso   1.00
Pt873  Pt    0.61406   0.59677   0.61414   0.00000  Uiso   1.00
Pt874  Pt    0.65968   0.59677   0.47729   0.00000  Uiso   1.00
Pt875  Pt    0.65968   0.59677   0.52291   0.00000  Uiso   1.00
Pt876  Pt    0.47721   0.59677   0.34044   0.00000  Uiso   1.00
Pt877  Pt    0.52283   0.40323   0.34044   0.00000  Uiso   1.00
Pt878  Pt    0.34035   0.40323   0.52291   0.00000  Uiso   1.00
Pt879  Pt    0.34035   0.40323   0.47729   0.00000  Uiso   1.00
Pt880  Pt    0.47721   0.59677   0.65977   0.00000  Uiso   1.00
Pt881  Pt    0.52283   0.40323   0.65977   0.00000  Uiso   1.00
Pt882  Pt    0.56845   0.66128   0.43168   0.00000  Uiso   1.00
Pt883  Pt    0.56845   0.66128   0.56853   0.00000  Uiso   1.00
Pt884  Pt    0.38598   0.40323   0.61414   0.00000  Uiso   1.00
Pt885  Pt    0.38598   0.40323   0.38606   0.00000  Uiso   1.00
Pt886  Pt    0.52283   0.59677   0.34044   0.00000  Uiso   1.00
Pt887  Pt    0.34035   0.59677   0.47729   0.00000  Uiso   1.00
Pt888  Pt    0.52283   0.59677   0.65977   0.00000  Uiso   1.00
Pt889  Pt    0.34035   0.59677   0.52291   0.00000  Uiso   1.00
Pt890  Pt    0.43159   0.66128   0.43168   0.00000  Uiso   1.00
Pt891  Pt    0.43159   0.66128   0.56853   0.00000  Uiso   1.00
Pt892  Pt    0.38598   0.59677   0.38606   0.00000  Uiso   1.00
Pt893  Pt    0.38598   0.59677   0.61414   0.00000  Uiso   1.00
Pt894  Pt    0.63687   0.62903   0.45448   0.00000  Uiso   1.00
Pt895  Pt    0.50002   0.69354   0.50010   0.00000  Uiso   1.00
Pt896  Pt    0.54564   0.62903   0.36325   0.00000  Uiso   1.00
Pt897  Pt    0.63687   0.62903   0.54572   0.00000  Uiso   1.00
Pt898  Pt    0.45440   0.62903   0.36325   0.00000  Uiso   1.00
Pt899  Pt    0.68250   0.56451   0.50010   0.00000  Uiso   1.00
Pt900  Pt    0.63687   0.50000   0.36325   0.00000  Uiso   1.00
Pt901  Pt    0.36317   0.62903   0.45448   0.00000  Uiso   1.00
Pt902  Pt    0.50002   0.56451   0.31763   0.00000  Uiso   1.00
Pt903  Pt    0.36317   0.62903   0.54572   0.00000  Uiso   1.00
Pt904  Pt    0.36317   0.50000   0.36325   0.00000  Uiso   1.00
Pt905  Pt    0.45440   0.62903   0.63696   0.00000  Uiso   1.00
Pt906  Pt    0.36317   0.50000   0.63696   0.00000  Uiso   1.00
Pt907  Pt    0.50002   0.43549   0.31763   0.00000  Uiso   1.00
Pt908  Pt    0.54564   0.62903   0.63696   0.00000  Uiso   1.00
Pt909  Pt    0.63687   0.37097   0.45448   0.00000  Uiso   1.00
Pt910  Pt    0.54564   0.37097   0.36325   0.00000  Uiso   1.00
Pt911  Pt    0.68250   0.43549   0.50010   0.00000  Uiso   1.00
Pt912  Pt    0.31754   0.56451   0.50010   0.00000  Uiso   1.00
Pt913  Pt    0.31754   0.43549   0.50010   0.00000  Uiso   1.00
Pt914  Pt    0.50002   0.30646   0.50010   0.00000  Uiso   1.00
Pt915  Pt    0.36317   0.37097   0.45448   0.00000  Uiso   1.00
Pt916  Pt    0.36317   0.37097   0.54572   0.00000  Uiso   1.00
Pt917  Pt    0.63687   0.50000   0.63696   0.00000  Uiso   1.00
Pt918  Pt    0.45440   0.37097   0.36325   0.00000  Uiso   1.00
Pt919  Pt    0.50002   0.56451   0.68258   0.00000  Uiso   1.00
Pt920  Pt    0.54564   0.37097   0.63696   0.00000  Uiso   1.00
Pt921  Pt    0.50002   0.43549   0.68258   0.00000  Uiso   1.00
Pt922  Pt    0.45440   0.37097   0.63696   0.00000  Uiso   1.00
Pt923  Pt    0.63687   0.37097   0.54572   0.00000  Uiso   1.00
Pt924  Pt    0.52283   0.33872   0.38606   0.00000  Uiso   1.00
Pt925  Pt    0.56845   0.40323   0.34044   0.00000  Uiso   1.00
Pt926  Pt    0.65968   0.40323   0.43168   0.00000  Uiso   1.00
Pt927  Pt    0.61406   0.33872   0.47729   0.00000  Uiso   1.00
Pt928  Pt    0.52283   0.33872   0.61414   0.00000  Uiso   1.00
Pt929  Pt    0.61406   0.33872   0.52291   0.00000  Uiso   1.00
Pt930  Pt    0.56845   0.40323   0.65976   0.00000  Uiso   1.00
Pt931  Pt    0.65968   0.40323   0.56853   0.00000  Uiso   1.00
Pt932  Pt    0.65968   0.59677   0.43168   0.00000  Uiso   1.00
Pt933  Pt    0.56845   0.59677   0.34044   0.00000  Uiso   1.00
Pt934  Pt    0.65968   0.46774   0.38606   0.00000  Uiso   1.00
Pt935  Pt    0.38598   0.46774   0.34044   0.00000  Uiso   1.00
Pt936  Pt    0.38598   0.33872   0.47729   0.00000  Uiso   1.00
Pt937  Pt    0.38598   0.33872   0.52291   0.00000  Uiso   1.00
Pt938  Pt    0.47721   0.33872   0.38606   0.00000  Uiso   1.00
Pt939  Pt    0.38598   0.46774   0.65977   0.00000  Uiso   1.00
Pt940  Pt    0.65968   0.59677   0.56853   0.00000  Uiso   1.00
Pt941  Pt    0.47721   0.33872   0.61414   0.00000  Uiso   1.00
Pt942  Pt    0.56845   0.59677   0.65976   0.00000  Uiso   1.00
Pt943  Pt    0.65968   0.46774   0.61414   0.00000  Uiso   1.00
Pt944  Pt    0.61406   0.46774   0.34044   0.00000  Uiso   1.00
Pt945  Pt    0.65968   0.53226   0.38606   0.00000  Uiso   1.00
Pt946  Pt    0.38598   0.53226   0.34044   0.00000  Uiso   1.00
Pt947  Pt    0.34035   0.46774   0.38606   0.00000  Uiso   1.00
Pt948  Pt    0.38598   0.53226   0.65977   0.00000  Uiso   1.00
Pt949  Pt    0.34035   0.46774   0.61414   0.00000  Uiso   1.00
Pt950  Pt    0.61406   0.46774   0.65977   0.00000  Uiso   1.00
Pt951  Pt    0.65968   0.53226   0.61414   0.00000  Uiso   1.00
Pt952  Pt    0.52283   0.66128   0.38606   0.00000  Uiso   1.00
Pt953  Pt    0.61406   0.66128   0.47729   0.00000  Uiso   1.00
Pt954  Pt    0.61406   0.66128   0.52291   0.00000  Uiso   1.00
Pt955  Pt    0.52283   0.66128   0.61414   0.00000  Uiso   1.00
Pt956  Pt    0.61406   0.53226   0.34044   0.00000  Uiso   1.00
Pt957  Pt    0.34035   0.53226   0.38606   0.00000  Uiso   1.00
Pt958  Pt    0.34035   0.53226   0.61414   0.00000  Uiso   1.00
Pt959  Pt    0.34036   0.40323   0.56853   0.00000  Uiso   1.00
Pt960  Pt    0.34036   0.40323   0.43168   0.00000  Uiso   1.00
Pt961  Pt    0.61406   0.53226   0.65977   0.00000  Uiso   1.00
Pt962  Pt    0.43159   0.40323   0.34044   0.00000  Uiso   1.00
Pt963  Pt    0.43159   0.40323   0.65976   0.00000  Uiso   1.00
Pt964  Pt    0.47721   0.66128   0.38606   0.00000  Uiso   1.00
Pt965  Pt    0.38598   0.66128   0.47729   0.00000  Uiso   1.00
Pt966  Pt    0.38598   0.66128   0.52291   0.00000  Uiso   1.00
Pt967  Pt    0.47721   0.66128   0.61414   0.00000  Uiso   1.00
Pt968  Pt    0.43159   0.59677   0.34044   0.00000  Uiso   1.00
Pt969  Pt    0.34036   0.59677   0.43168   0.00000  Uiso   1.00
Pt970  Pt    0.34036   0.59677   0.56853   0.00000  Uiso   1.00
Pt971  Pt    0.43159   0.59677   0.65976   0.00000  Uiso   1.00
Pt972  Pt    0.54563   0.69354   0.45449   0.00000  Uiso   1.00
Pt973  Pt    0.54563   0.69354   0.54572   0.00000  Uiso   1.00
Pt974  Pt    0.45440   0.69354   0.45449   0.00000  Uiso   1.00
Pt975  Pt    0.63687   0.56451   0.36325   0.00000  Uiso   1.00
Pt976  Pt    0.45440   0.69354   0.54572   0.00000  Uiso   1.00
Pt977  Pt    0.59126   0.50000   0.31763   0.00000  Uiso   1.00
Pt978  Pt    0.68249   0.50000   0.40886   0.00000  Uiso   1.00
Pt979  Pt    0.31755   0.50000   0.59134   0.00000  Uiso   1.00
Pt980  Pt    0.63687   0.43549   0.36325   0.00000  Uiso   1.00
Pt981  Pt    0.31755   0.50000   0.40886   0.00000  Uiso   1.00
Pt982  Pt    0.36317   0.56451   0.36325   0.00000  Uiso   1.00
Pt983  Pt    0.40878   0.50000   0.31763   0.00000  Uiso   1.00
Pt984  Pt    0.36317   0.43549   0.36325   0.00000  Uiso   1.00
Pt985  Pt    0.36317   0.56451   0.63696   0.00000  Uiso   1.00
Pt986  Pt    0.40878   0.50000   0.68257   0.00000  Uiso   1.00
Pt987  Pt    0.45440   0.30646   0.54572   0.00000  Uiso   1.00
Pt988  Pt    0.45440   0.30646   0.45449   0.00000  Uiso   1.00
Pt989  Pt    0.63687   0.56451   0.63696   0.00000  Uiso   1.00
Pt990  Pt    0.59126   0.50000   0.68257   0.00000  Uiso   1.00
Pt991  Pt    0.54563   0.30646   0.45449   0.00000  Uiso   1.00
Pt992  Pt    0.36317   0.43549   0.63696   0.00000  Uiso   1.00
Pt993  Pt    0.54563   0.30646   0.54572   0.00000  Uiso   1.00
Pt994  Pt    0.68249   0.50000   0.59134   0.00000  Uiso   1.00
Pt995  Pt    0.63687   0.43549   0.63696   0.00000  Uiso   1.00
Pt996  Pt    0.52282   0.46774   0.29482   0.00000  Uiso   1.00
Pt997  Pt    0.61407   0.33872   0.43168   0.00000  Uiso   1.00
Pt998  Pt    0.70530   0.46774   0.47730   0.00000  Uiso   1.00
Pt999  Pt    0.70530   0.46774   0.52291   0.00000  Uiso   1.00
Pt1000 Pt    0.43159   0.33872   0.38605   0.00000  Uiso   1.00
Pt1001 Pt    0.43159   0.33872   0.61415   0.00000  Uiso   1.00
Pt1002 Pt    0.52282   0.46774   0.70538   0.00000  Uiso   1.00
Pt1003 Pt    0.61407   0.33872   0.56853   0.00000  Uiso   1.00
Pt1004 Pt    0.70530   0.53226   0.47730   0.00000  Uiso   1.00
Pt1005 Pt    0.52282   0.53226   0.29482   0.00000  Uiso   1.00
Pt1006 Pt    0.56845   0.33872   0.38605   0.00000  Uiso   1.00
Pt1007 Pt    0.70530   0.53226   0.52291   0.00000  Uiso   1.00
Pt1008 Pt    0.38597   0.33872   0.43168   0.00000  Uiso   1.00
Pt1009 Pt    0.38597   0.33872   0.56853   0.00000  Uiso   1.00
Pt1010 Pt    0.52282   0.53226   0.70538   0.00000  Uiso   1.00
Pt1011 Pt    0.56845   0.33872   0.61415   0.00000  Uiso   1.00
Pt1012 Pt    0.61407   0.66128   0.43168   0.00000  Uiso   1.00
Pt1013 Pt    0.61407   0.66128   0.56853   0.00000  Uiso   1.00
Pt1014 Pt    0.43159   0.66128   0.38605   0.00000  Uiso   1.00
Pt1015 Pt    0.43159   0.66128   0.61415   0.00000  Uiso   1.00
Pt1016 Pt    0.47721   0.46774   0.29482   0.00000  Uiso   1.00
Pt1017 Pt    0.29474   0.46774   0.47730   0.00000  Uiso   1.00
Pt1018 Pt    0.29474   0.46774   0.52291   0.00000  Uiso   1.00
Pt1019 Pt    0.47721   0.46774   0.70538   0.00000  Uiso   1.00
Pt1020 Pt    0.56845   0.66128   0.38605   0.00000  Uiso   1.00
Pt1021 Pt    0.38597   0.66128   0.43168   0.00000  Uiso   1.00
Pt1022 Pt    0.38597   0.66128   0.56853   0.00000  Uiso   1.00
Pt1023 Pt    0.47721   0.53226   0.29482   0.00000  Uiso   1.00
Pt1024 Pt    0.56845   0.66128   0.61415   0.00000  Uiso   1.00
Pt1025 Pt    0.29474   0.53226   0.47730   0.00000  Uiso   1.00
Pt1026 Pt    0.29474   0.53226   0.52291   0.00000  Uiso   1.00
Pt1027 Pt    0.47721   0.53226   0.70538   0.00000  Uiso   1.00
Pt1028 Pt    0.59125   0.69354   0.50010   0.00000  Uiso   1.00
Pt1029 Pt    0.50002   0.69354   0.40887   0.00000  Uiso   1.00
Pt1030 Pt    0.40879   0.69354   0.50010   0.00000  Uiso   1.00
Pt1031 Pt    0.50002   0.69354   0.59133   0.00000  Uiso   1.00
Pt1032 Pt    0.68249   0.56451   0.40886   0.00000  Uiso   1.00
Pt1033 Pt    0.59126   0.56451   0.31763   0.00000  Uiso   1.00
Pt1034 Pt    0.40878   0.56451   0.31763   0.00000  Uiso   1.00
Pt1035 Pt    0.59126   0.43549   0.31763   0.00000  Uiso   1.00
Pt1036 Pt    0.68249   0.43549   0.40886   0.00000  Uiso   1.00
Pt1037 Pt    0.31755   0.43549   0.40886   0.00000  Uiso   1.00
Pt1038 Pt    0.31755   0.56451   0.59134   0.00000  Uiso   1.00
Pt1039 Pt    0.31755   0.56451   0.40886   0.00000  Uiso   1.00
Pt1040 Pt    0.40879   0.30646   0.50010   0.00000  Uiso   1.00
Pt1041 Pt    0.31755   0.43549   0.59134   0.00000  Uiso   1.00
Pt1042 Pt    0.40878   0.43549   0.31763   0.00000  Uiso   1.00
Pt1043 Pt    0.50002   0.30646   0.40887   0.00000  Uiso   1.00
Pt1044 Pt    0.68249   0.56451   0.59134   0.00000  Uiso   1.00
Pt1045 Pt    0.40878   0.56451   0.68257   0.00000  Uiso   1.00
Pt1046 Pt    0.40878   0.43549   0.68257   0.00000  Uiso   1.00
Pt1047 Pt    0.59126   0.56451   0.68257   0.00000  Uiso   1.00
Pt1048 Pt    0.59126   0.43549   0.68257   0.00000  Uiso   1.00
Pt1049 Pt    0.50002   0.30646   0.59133   0.00000  Uiso   1.00
Pt1050 Pt    0.59125   0.30646   0.50010   0.00000  Uiso   1.00
Pt1051 Pt    0.68249   0.43549   0.59134   0.00000  Uiso   1.00
Pt1052 Pt    0.70530   0.46774   0.43168   0.00000  Uiso   1.00
Pt1053 Pt    0.65968   0.40323   0.38606   0.00000  Uiso   1.00
Pt1054 Pt    0.43159   0.46774   0.29482   0.00000  Uiso   1.00
Pt1055 Pt    0.38598   0.40323   0.34044   0.00000  Uiso   1.00
Pt1056 Pt    0.70530   0.46774   0.56853   0.00000  Uiso   1.00
Pt1057 Pt    0.43159   0.46774   0.70538   0.00000  Uiso   1.00
Pt1058 Pt    0.38598   0.40323   0.65977   0.00000  Uiso   1.00
Pt1059 Pt    0.65968   0.40323   0.61414   0.00000  Uiso   1.00
Pt1060 Pt    0.70530   0.53226   0.43168   0.00000  Uiso   1.00
Pt1061 Pt    0.43159   0.53226   0.29482   0.00000  Uiso   1.00
Pt1062 Pt    0.61406   0.40323   0.34044   0.00000  Uiso   1.00
Pt1063 Pt    0.34035   0.40323   0.38606   0.00000  Uiso   1.00
Pt1064 Pt    0.70530   0.53226   0.56853   0.00000  Uiso   1.00
Pt1065 Pt    0.34035   0.40323   0.61414   0.00000  Uiso   1.00
Pt1066 Pt    0.43159   0.53226   0.70538   0.00000  Uiso   1.00
Pt1067 Pt    0.61406   0.40323   0.65977   0.00000  Uiso   1.00
Pt1068 Pt    0.65968   0.59677   0.38606   0.00000  Uiso   1.00
Pt1069 Pt    0.56845   0.46774   0.29482   0.00000  Uiso   1.00
Pt1070 Pt    0.38598   0.59677   0.34044   0.00000  Uiso   1.00
Pt1071 Pt    0.29474   0.46774   0.43168   0.00000  Uiso   1.00
Pt1072 Pt    0.29474   0.46774   0.56853   0.00000  Uiso   1.00
Pt1073 Pt    0.38598   0.59677   0.65977   0.00000  Uiso   1.00
Pt1074 Pt    0.56845   0.46774   0.70538   0.00000  Uiso   1.00
Pt1075 Pt    0.65968   0.59677   0.61414   0.00000  Uiso   1.00
Pt1076 Pt    0.56845   0.53226   0.29482   0.00000  Uiso   1.00
Pt1077 Pt    0.61406   0.59677   0.34044   0.00000  Uiso   1.00
Pt1078 Pt    0.29474   0.53226   0.43168   0.00000  Uiso   1.00
Pt1079 Pt    0.34035   0.59677   0.38606   0.00000  Uiso   1.00
Pt1080 Pt    0.29474   0.53226   0.56853   0.00000  Uiso   1.00
Pt1081 Pt    0.34035   0.59677   0.61414   0.00000  Uiso   1.00
Pt1082 Pt    0.61406   0.59677   0.65977   0.00000  Uiso   1.00
Pt1083 Pt    0.56845   0.53226   0.70538   0.00000  Uiso   1.00
Pt1084 Pt    0.68250   0.62903   0.50010   0.00000  Uiso   1.00
Pt1085 Pt    0.50002   0.62903   0.31763   0.00000  Uiso   1.00
Pt1086 Pt    0.31754   0.62903   0.50010   0.00000  Uiso   1.00
Pt1087 Pt    0.50002   0.62903   0.68258   0.00000  Uiso   1.00
Pt1088 Pt    0.50002   0.37097   0.31763   0.00000  Uiso   1.00
Pt1089 Pt    0.31754   0.37097   0.50010   0.00000  Uiso   1.00
Pt1090 Pt    0.68250   0.37097   0.50010   0.00000  Uiso   1.00
Pt1091 Pt    0.50002   0.37097   0.68258   0.00000  Uiso   1.00
Pt1092 Pt    0.61406   0.33872   0.38606   0.00000  Uiso   1.00
Pt1093 Pt    0.61406   0.33872   0.61414   0.00000  Uiso   1.00
Pt1094 Pt    0.65968   0.46774   0.34044   0.00000  Uiso   1.00
Pt1095 Pt    0.52282   0.40323   0.29482   0.00000  Uiso   1.00
Pt1096 Pt    0.65968   0.33872   0.47729   0.00000  Uiso   1.00
Pt1097 Pt    0.47721   0.33872   0.34044   0.00000  Uiso   1.00
Pt1098 Pt    0.70530   0.40323   0.47730   0.00000  Uiso   1.00
Pt1099 Pt    0.52283   0.27420   0.52291   0.00000  Uiso   1.00
Pt1100 Pt    0.52283   0.27420   0.47729   0.00000  Uiso   1.00
Pt1101 Pt    0.65968   0.33872   0.52291   0.00000  Uiso   1.00
Pt1102 Pt    0.65968   0.46774   0.65977   0.00000  Uiso   1.00
Pt1103 Pt    0.70530   0.40323   0.52291   0.00000  Uiso   1.00
Pt1104 Pt    0.47721   0.33872   0.65977   0.00000  Uiso   1.00
Pt1105 Pt    0.52282   0.40323   0.70538   0.00000  Uiso   1.00
Pt1106 Pt    0.65968   0.53226   0.34044   0.00000  Uiso   1.00
Pt1107 Pt    0.47721   0.27420   0.47729   0.00000  Uiso   1.00
Pt1108 Pt    0.47721   0.27420   0.52291   0.00000  Uiso   1.00
Pt1109 Pt    0.65968   0.53226   0.65977   0.00000  Uiso   1.00
Pt1110 Pt    0.70530   0.59677   0.47730   0.00000  Uiso   1.00
Pt1111 Pt    0.52282   0.59677   0.29482   0.00000  Uiso   1.00
Pt1112 Pt    0.70530   0.59677   0.52291   0.00000  Uiso   1.00
Pt1113 Pt    0.52283   0.33872   0.34044   0.00000  Uiso   1.00
Pt1114 Pt    0.34035   0.33872   0.52291   0.00000  Uiso   1.00
Pt1115 Pt    0.34035   0.33872   0.47729   0.00000  Uiso   1.00
Pt1116 Pt    0.52283   0.33872   0.65977   0.00000  Uiso   1.00
Pt1117 Pt    0.52282   0.59677   0.70538   0.00000  Uiso   1.00
Pt1118 Pt    0.61406   0.66128   0.38606   0.00000  Uiso   1.00
Pt1119 Pt    0.61406   0.66128   0.61414   0.00000  Uiso   1.00
Pt1120 Pt    0.38598   0.33872   0.61414   0.00000  Uiso   1.00
Pt1121 Pt    0.38598   0.33872   0.38606   0.00000  Uiso   1.00
Pt1122 Pt    0.65968   0.66128   0.47729   0.00000  Uiso   1.00
Pt1123 Pt    0.47721   0.66128   0.34044   0.00000  Uiso   1.00
Pt1124 Pt    0.65968   0.66128   0.52291   0.00000  Uiso   1.00
Pt1125 Pt    0.47721   0.66128   0.65977   0.00000  Uiso   1.00
Pt1126 Pt    0.47721   0.40323   0.29482   0.00000  Uiso   1.00
Pt1127 Pt    0.29474   0.40323   0.52291   0.00000  Uiso   1.00
Pt1128 Pt    0.29474   0.40323   0.47730   0.00000  Uiso   1.00
Pt1129 Pt    0.47721   0.40323   0.70538   0.00000  Uiso   1.00
Pt1130 Pt    0.52283   0.72580   0.52291   0.00000  Uiso   1.00
Pt1131 Pt    0.52283   0.72580   0.47729   0.00000  Uiso   1.00
Pt1132 Pt    0.34035   0.46774   0.34044   0.00000  Uiso   1.00
Pt1133 Pt    0.34035   0.46774   0.65977   0.00000  Uiso   1.00
Pt1134 Pt    0.52283   0.66128   0.34044   0.00000  Uiso   1.00
Pt1135 Pt    0.47721   0.72580   0.52291   0.00000  Uiso   1.00
Pt1136 Pt    0.47721   0.72580   0.47729   0.00000  Uiso   1.00
Pt1137 Pt    0.47721   0.59677   0.29482   0.00000  Uiso   1.00
Pt1138 Pt    0.34035   0.66128   0.52291   0.00000  Uiso   1.00
Pt1139 Pt    0.34035   0.53226   0.65977   0.00000  Uiso   1.00
Pt1140 Pt    0.34035   0.66128   0.47729   0.00000  Uiso   1.00
Pt1141 Pt    0.34035   0.53226   0.34044   0.00000  Uiso   1.00
Pt1142 Pt    0.52283   0.66128   0.65977   0.00000  Uiso   1.00
Pt1143 Pt    0.29474   0.59677   0.47730   0.00000  Uiso   1.00
Pt1144 Pt    0.29474   0.59677   0.52291   0.00000  Uiso   1.00
Pt1145 Pt    0.47721   0.59677   0.70538   0.00000  Uiso   1.00
Pt1146 Pt    0.38598   0.66128   0.38606   0.00000  Uiso   1.00
Pt1147 Pt    0.38598   0.66128   0.61414   0.00000  Uiso   1.00
Pt1148 Pt    0.59126   0.69354   0.40886   0.00000  Uiso   1.00
Pt1149 Pt    0.63687   0.62903   0.36325   0.00000  Uiso   1.00
Pt1150 Pt    0.59126   0.69354   0.59134   0.00000  Uiso   1.00
Pt1151 Pt    0.36317   0.62903   0.36325   0.00000  Uiso   1.00
Pt1152 Pt    0.40878   0.69354   0.40886   0.00000  Uiso   1.00
Pt1153 Pt    0.72811   0.50000   0.45449   0.00000  Uiso   1.00
Pt1154 Pt    0.45440   0.50000   0.27201   0.00000  Uiso   1.00
Pt1155 Pt    0.40878   0.69354   0.59134   0.00000  Uiso   1.00
Pt1156 Pt    0.54563   0.50000   0.27201   0.00000  Uiso   1.00
Pt1157 Pt    0.63687   0.37097   0.36325   0.00000  Uiso   1.00
Pt1158 Pt    0.36317   0.62903   0.63696   0.00000  Uiso   1.00
Pt1159 Pt    0.27193   0.50000   0.45449   0.00000  Uiso   1.00
Pt1160 Pt    0.27193   0.50000   0.54572   0.00000  Uiso   1.00
Pt1161 Pt    0.63687   0.62903   0.63696   0.00000  Uiso   1.00
Pt1162 Pt    0.59126   0.30646   0.40886   0.00000  Uiso   1.00
Pt1163 Pt    0.45440   0.50000   0.72819   0.00000  Uiso   1.00
Pt1164 Pt    0.36317   0.37097   0.36325   0.00000  Uiso   1.00
Pt1165 Pt    0.72811   0.50000   0.54572   0.00000  Uiso   1.00
Pt1166 Pt    0.40878   0.30646   0.59134   0.00000  Uiso   1.00
Pt1167 Pt    0.40878   0.30646   0.40886   0.00000  Uiso   1.00
Pt1168 Pt    0.36317   0.37097   0.63696   0.00000  Uiso   1.00
Pt1169 Pt    0.54563   0.50000   0.72819   0.00000  Uiso   1.00
Pt1170 Pt    0.59126   0.30646   0.59134   0.00000  Uiso   1.00
Pt1171 Pt    0.63687   0.37097   0.63696   0.00000  Uiso   1.00
Pt1172 Pt    0.56845   0.33872   0.34044   0.00000  Uiso   1.00
Pt1173 Pt    0.65968   0.33872   0.43168   0.00000  Uiso   1.00
Pt1174 Pt    0.56845   0.33872   0.65976   0.00000  Uiso   1.00
Pt1175 Pt    0.65968   0.33872   0.56853   0.00000  Uiso   1.00
Pt1176 Pt    0.70530   0.46774   0.38605   0.00000  Uiso   1.00
Pt1177 Pt    0.61407   0.46774   0.29482   0.00000  Uiso   1.00
Pt1178 Pt    0.47721   0.27420   0.43168   0.00000  Uiso   1.00
Pt1179 Pt    0.47721   0.27420   0.56853   0.00000  Uiso   1.00
Pt1180 Pt    0.56845   0.27420   0.47730   0.00000  Uiso   1.00
Pt1181 Pt    0.61407   0.46774   0.70538   0.00000  Uiso   1.00
Pt1182 Pt    0.56845   0.27420   0.52291   0.00000  Uiso   1.00
Pt1183 Pt    0.70530   0.46774   0.61415   0.00000  Uiso   1.00
Pt1184 Pt    0.61407   0.53226   0.29482   0.00000  Uiso   1.00
Pt1185 Pt    0.70530   0.53226   0.38605   0.00000  Uiso   1.00
Pt1186 Pt    0.70530   0.40323   0.43168   0.00000  Uiso   1.00
Pt1187 Pt    0.43159   0.40323   0.29482   0.00000  Uiso   1.00
Pt1188 Pt    0.43159   0.27420   0.52291   0.00000  Uiso   1.00
Pt1189 Pt    0.43159   0.27420   0.47730   0.00000  Uiso   1.00
Pt1190 Pt    0.52282   0.27420   0.43168   0.00000  Uiso   1.00
Pt1191 Pt    0.61407   0.53226   0.70538   0.00000  Uiso   1.00
Pt1192 Pt    0.52282   0.27420   0.56853   0.00000  Uiso   1.00
Pt1193 Pt    0.43159   0.40323   0.70538   0.00000  Uiso   1.00
Pt1194 Pt    0.70530   0.53226   0.61415   0.00000  Uiso   1.00
Pt1195 Pt    0.70530   0.40323   0.56853   0.00000  Uiso   1.00
Pt1196 Pt    0.56845   0.66128   0.34044   0.00000  Uiso   1.00
Pt1197 Pt    0.65968   0.66128   0.43168   0.00000  Uiso   1.00
Pt1198 Pt    0.65968   0.66128   0.56853   0.00000  Uiso   1.00
Pt1199 Pt    0.70530   0.59677   0.43168   0.00000  Uiso   1.00
Pt1200 Pt    0.43159   0.59677   0.29482   0.00000  Uiso   1.00
Pt1201 Pt    0.56845   0.40323   0.29482   0.00000  Uiso   1.00
Pt1202 Pt    0.56845   0.66128   0.65976   0.00000  Uiso   1.00
Pt1203 Pt    0.34036   0.33872   0.43168   0.00000  Uiso   1.00
Pt1204 Pt    0.34036   0.33872   0.56853   0.00000  Uiso   1.00
Pt1205 Pt    0.29474   0.40323   0.56853   0.00000  Uiso   1.00
Pt1206 Pt    0.70530   0.59677   0.56853   0.00000  Uiso   1.00
Pt1207 Pt    0.29474   0.40323   0.43168   0.00000  Uiso   1.00
Pt1208 Pt    0.43159   0.33872   0.34044   0.00000  Uiso   1.00
Pt1209 Pt    0.43159   0.59677   0.70538   0.00000  Uiso   1.00
Pt1210 Pt    0.43159   0.33872   0.65976   0.00000  Uiso   1.00
Pt1211 Pt    0.56845   0.40323   0.70538   0.00000  Uiso   1.00
Pt1212 Pt    0.47721   0.72580   0.43168   0.00000  Uiso   1.00
Pt1213 Pt    0.56845   0.72580   0.52291   0.00000  Uiso   1.00
Pt1214 Pt    0.56845   0.72580   0.47730   0.00000  Uiso   1.00
Pt1215 Pt    0.47721   0.72580   0.56853   0.00000  Uiso   1.00
Pt1216 Pt    0.29474   0.46774   0.38605   0.00000  Uiso   1.00
Pt1217 Pt    0.56845   0.59677   0.29482   0.00000  Uiso   1.00
Pt1218 Pt    0.38597   0.46774   0.29482   0.00000  Uiso   1.00
Pt1219 Pt    0.29474   0.59677   0.43168   0.00000  Uiso   1.00
Pt1220 Pt    0.29474   0.46774   0.61415   0.00000  Uiso   1.00
Pt1221 Pt    0.29474   0.59677   0.56853   0.00000  Uiso   1.00
Pt1222 Pt    0.38597   0.46774   0.70538   0.00000  Uiso   1.00
Pt1223 Pt    0.56845   0.59677   0.70538   0.00000  Uiso   1.00
Pt1224 Pt    0.52282   0.72580   0.43168   0.00000  Uiso   1.00
Pt1225 Pt    0.52282   0.72580   0.56853   0.00000  Uiso   1.00
Pt1226 Pt    0.43159   0.72580   0.52291   0.00000  Uiso   1.00
Pt1227 Pt    0.43159   0.72580   0.47730   0.00000  Uiso   1.00
Pt1228 Pt    0.29474   0.53226   0.61415   0.00000  Uiso   1.00
Pt1229 Pt    0.29474   0.53226   0.38605   0.00000  Uiso   1.00
Pt1230 Pt    0.38597   0.53226   0.70538   0.00000  Uiso   1.00
Pt1231 Pt    0.38597   0.53226   0.29482   0.00000  Uiso   1.00
Pt1232 Pt    0.43159   0.66128   0.34044   0.00000  Uiso   1.00
Pt1233 Pt    0.34036   0.66128   0.56853   0.00000  Uiso   1.00
Pt1234 Pt    0.34036   0.66128   0.43168   0.00000  Uiso   1.00
Pt1235 Pt    0.43159   0.66128   0.65976   0.00000  Uiso   1.00
Pt1236 Pt    0.54564   0.69354   0.36325   0.00000  Uiso   1.00
Pt1237 Pt    0.63687   0.69354   0.45448   0.00000  Uiso   1.00
Pt1238 Pt    0.68249   0.62903   0.40886   0.00000  Uiso   1.00
Pt1239 Pt    0.45440   0.69354   0.36325   0.00000  Uiso   1.00
Pt1240 Pt    0.63687   0.69354   0.54572   0.00000  Uiso   1.00
Pt1241 Pt    0.59126   0.62903   0.31763   0.00000  Uiso   1.00
Pt1242 Pt    0.54563   0.56451   0.27201   0.00000  Uiso   1.00
Pt1243 Pt    0.40878   0.62903   0.31763   0.00000  Uiso   1.00
Pt1244 Pt    0.72811   0.56451   0.45449   0.00000  Uiso   1.00
Pt1245 Pt    0.36317   0.69354   0.45448   0.00000  Uiso   1.00
Pt1246 Pt    0.45440   0.56451   0.27201   0.00000  Uiso   1.00
Pt1247 Pt    0.31755   0.62903   0.40886   0.00000  Uiso   1.00
Pt1248 Pt    0.45440   0.43549   0.27201   0.00000  Uiso   1.00
Pt1249 Pt    0.45440   0.69354   0.63696   0.00000  Uiso   1.00
Pt1250 Pt    0.54563   0.43549   0.27201   0.00000  Uiso   1.00
Pt1251 Pt    0.36317   0.69354   0.54572   0.00000  Uiso   1.00
Pt1252 Pt    0.54564   0.69354   0.63696   0.00000  Uiso   1.00
Pt1253 Pt    0.31755   0.62903   0.59134   0.00000  Uiso   1.00
Pt1254 Pt    0.68249   0.37097   0.40886   0.00000  Uiso   1.00
Pt1255 Pt    0.59126   0.37097   0.31763   0.00000  Uiso   1.00
Pt1256 Pt    0.72811   0.43549   0.45449   0.00000  Uiso   1.00
Pt1257 Pt    0.54564   0.30646   0.36325   0.00000  Uiso   1.00
Pt1258 Pt    0.40878   0.62903   0.68257   0.00000  Uiso   1.00
Pt1259 Pt    0.68249   0.62903   0.59134   0.00000  Uiso   1.00
Pt1260 Pt    0.27193   0.43549   0.54572   0.00000  Uiso   1.00
Pt1261 Pt    0.72811   0.56451   0.54572   0.00000  Uiso   1.00
Pt1262 Pt    0.59126   0.62903   0.68257   0.00000  Uiso   1.00
Pt1263 Pt    0.36317   0.30646   0.45448   0.00000  Uiso   1.00
Pt1264 Pt    0.27193   0.56451   0.54572   0.00000  Uiso   1.00
Pt1265 Pt    0.27193   0.56451   0.45449   0.00000  Uiso   1.00
Pt1266 Pt    0.63687   0.30646   0.45448   0.00000  Uiso   1.00
Pt1267 Pt    0.36317   0.30646   0.54572   0.00000  Uiso   1.00
Pt1268 Pt    0.40878   0.37097   0.31763   0.00000  Uiso   1.00
Pt1269 Pt    0.27193   0.43549   0.45449   0.00000  Uiso   1.00
Pt1270 Pt    0.31755   0.37097   0.59134   0.00000  Uiso   1.00
Pt1271 Pt    0.72811   0.43549   0.54572   0.00000  Uiso   1.00
Pt1272 Pt    0.45440   0.56451   0.72819   0.00000  Uiso   1.00
Pt1273 Pt    0.31755   0.37097   0.40886   0.00000  Uiso   1.00
Pt1274 Pt    0.40878   0.37097   0.68257   0.00000  Uiso   1.00
Pt1275 Pt    0.45440   0.30646   0.63696   0.00000  Uiso   1.00
Pt1276 Pt    0.45440   0.30646   0.36325   0.00000  Uiso   1.00
Pt1277 Pt    0.54564   0.30646   0.63696   0.00000  Uiso   1.00
Pt1278 Pt    0.45440   0.43549   0.72819   0.00000  Uiso   1.00
Pt1279 Pt    0.54563   0.43549   0.72819   0.00000  Uiso   1.00
Pt1280 Pt    0.59126   0.37097   0.68257   0.00000  Uiso   1.00
Pt1281 Pt    0.54563   0.56451   0.72819   0.00000  Uiso   1.00
Pt1282 Pt    0.63687   0.30646   0.54572   0.00000  Uiso   1.00
Pt1283 Pt    0.68249   0.37097   0.59134   0.00000  Uiso   1.00
Pt1284 Pt    0.65968   0.40323   0.34044   0.00000  Uiso   1.00
Pt1285 Pt    0.56845   0.27420   0.43168   0.00000  Uiso   1.00
Pt1286 Pt    0.56845   0.27420   0.56853   0.00000  Uiso   1.00
Pt1287 Pt    0.65968   0.40323   0.65977   0.00000  Uiso   1.00
Pt1288 Pt    0.65968   0.59677   0.34044   0.00000  Uiso   1.00
Pt1289 Pt    0.43159   0.27420   0.43168   0.00000  Uiso   1.00
Pt1290 Pt    0.43159   0.27420   0.56853   0.00000  Uiso   1.00
Pt1291 Pt    0.65968   0.59677   0.65977   0.00000  Uiso   1.00
Pt1292 Pt    0.56845   0.72580   0.43168   0.00000  Uiso   1.00
Pt1293 Pt    0.56845   0.72580   0.56853   0.00000  Uiso   1.00
Pt1294 Pt    0.34035   0.40323   0.34044   0.00000  Uiso   1.00
Pt1295 Pt    0.34035   0.40323   0.65977   0.00000  Uiso   1.00
Pt1296 Pt    0.43159   0.72580   0.43168   0.00000  Uiso   1.00
Pt1297 Pt    0.43159   0.72580   0.56853   0.00000  Uiso   1.00
Pt1298 Pt    0.34035   0.59677   0.65977   0.00000  Uiso   1.00
Pt1299 Pt    0.34035   0.59677   0.34044   0.00000  Uiso   1.00
Pt1300 Pt    0.61407   0.40323   0.29482   0.00000  Uiso   1.00
Pt1301 Pt    0.70530   0.40323   0.38605   0.00000  Uiso   1.00
Pt1302 Pt    0.52283   0.27420   0.38606   0.00000  Uiso   1.00
Pt1303 Pt    0.61406   0.27420   0.47729   0.00000  Uiso   1.00
Pt1304 Pt    0.52283   0.27420   0.61414   0.00000  Uiso   1.00
Pt1305 Pt    0.61406   0.27420   0.52291   0.00000  Uiso   1.00
Pt1306 Pt    0.61407   0.40323   0.70538   0.00000  Uiso   1.00
Pt1307 Pt    0.70530   0.40323   0.61415   0.00000  Uiso   1.00
Pt1308 Pt    0.47721   0.46774   0.24921   0.00000  Uiso   1.00
Pt1309 Pt    0.65968   0.33872   0.38606   0.00000  Uiso   1.00
Pt1310 Pt    0.75091   0.46774   0.47729   0.00000  Uiso   1.00
Pt1311 Pt    0.38598   0.33872   0.34044   0.00000  Uiso   1.00
Pt1312 Pt    0.75091   0.46774   0.52291   0.00000  Uiso   1.00
Pt1313 Pt    0.38598   0.33872   0.65977   0.00000  Uiso   1.00
Pt1314 Pt    0.47721   0.46774   0.75100   0.00000  Uiso   1.00
Pt1315 Pt    0.65968   0.33872   0.61414   0.00000  Uiso   1.00
Pt1316 Pt    0.61407   0.59677   0.29482   0.00000  Uiso   1.00
Pt1317 Pt    0.47721   0.53226   0.24921   0.00000  Uiso   1.00
Pt1318 Pt    0.70530   0.59677   0.38605   0.00000  Uiso   1.00
Pt1319 Pt    0.75091   0.53226   0.47729   0.00000  Uiso   1.00
Pt1320 Pt    0.61406   0.33872   0.34044   0.00000  Uiso   1.00
Pt1321 Pt    0.38598   0.27420   0.47729   0.00000  Uiso   1.00
Pt1322 Pt    0.75091   0.53226   0.52291   0.00000  Uiso   1.00
Pt1323 Pt    0.38598   0.27420   0.52291   0.00000  Uiso   1.00
Pt1324 Pt    0.47721   0.27420   0.38606   0.00000  Uiso   1.00
Pt1325 Pt    0.47721   0.27420   0.61414   0.00000  Uiso   1.00
Pt1326 Pt    0.70530   0.59677   0.61415   0.00000  Uiso   1.00
Pt1327 Pt    0.34035   0.33872   0.38606   0.00000  Uiso   1.00
Pt1328 Pt    0.34035   0.33872   0.61414   0.00000  Uiso   1.00
Pt1329 Pt    0.61406   0.33872   0.65977   0.00000  Uiso   1.00
Pt1330 Pt    0.61407   0.59677   0.70538   0.00000  Uiso   1.00
Pt1331 Pt    0.47721   0.53226   0.75100   0.00000  Uiso   1.00
Pt1332 Pt    0.61406   0.72580   0.52291   0.00000  Uiso   1.00
Pt1333 Pt    0.61406   0.72580   0.47729   0.00000  Uiso   1.00
Pt1334 Pt    0.65968   0.66128   0.38606   0.00000  Uiso   1.00
Pt1335 Pt    0.52283   0.72580   0.38606   0.00000  Uiso   1.00
Pt1336 Pt    0.52283   0.72580   0.61414   0.00000  Uiso   1.00
Pt1337 Pt    0.38598   0.66128   0.34044   0.00000  Uiso   1.00
Pt1338 Pt    0.38598   0.66128   0.65977   0.00000  Uiso   1.00
Pt1339 Pt    0.52283   0.46774   0.24921   0.00000  Uiso   1.00
Pt1340 Pt    0.65968   0.66128   0.61414   0.00000  Uiso   1.00
Pt1341 Pt    0.24912   0.46774   0.52291   0.00000  Uiso   1.00
Pt1342 Pt    0.29474   0.40323   0.38605   0.00000  Uiso   1.00
Pt1343 Pt    0.38597   0.40323   0.29482   0.00000  Uiso   1.00
Pt1344 Pt    0.29474   0.40323   0.61415   0.00000  Uiso   1.00
Pt1345 Pt    0.24912   0.46774   0.47729   0.00000  Uiso   1.00
Pt1346 Pt    0.52283   0.46774   0.75100   0.00000  Uiso   1.00
Pt1347 Pt    0.38597   0.40323   0.70538   0.00000  Uiso   1.00
Pt1348 Pt    0.61406   0.66128   0.34044   0.00000  Uiso   1.00
Pt1349 Pt    0.34035   0.66128   0.38606   0.00000  Uiso   1.00
Pt1350 Pt    0.52283   0.53226   0.24921   0.00000  Uiso   1.00
Pt1351 Pt    0.34035   0.66128   0.61414   0.00000  Uiso   1.00
Pt1352 Pt    0.24912   0.53226   0.47729   0.00000  Uiso   1.00
Pt1353 Pt    0.61406   0.66128   0.65977   0.00000  Uiso   1.00
Pt1354 Pt    0.24912   0.53226   0.52291   0.00000  Uiso   1.00
Pt1355 Pt    0.52283   0.53226   0.75100   0.00000  Uiso   1.00
Pt1356 Pt    0.47721   0.72580   0.38606   0.00000  Uiso   1.00
Pt1357 Pt    0.38598   0.72580   0.52291   0.00000  Uiso   1.00
Pt1358 Pt    0.38598   0.72580   0.47729   0.00000  Uiso   1.00
Pt1359 Pt    0.47721   0.72580   0.61414   0.00000  Uiso   1.00
Pt1360 Pt    0.29474   0.59677   0.61415   0.00000  Uiso   1.00
Pt1361 Pt    0.38597   0.59677   0.29482   0.00000  Uiso   1.00
Pt1362 Pt    0.38597   0.59677   0.70538   0.00000  Uiso   1.00
Pt1363 Pt    0.29474   0.59677   0.38605   0.00000  Uiso   1.00
Pt1364 Pt    0.50002   0.75805   0.50010   0.00000  Uiso   1.00
Pt1365 Pt    0.68249   0.50000   0.31763   0.00000  Uiso   1.00
Pt1366 Pt    0.31755   0.50000   0.31763   0.00000  Uiso   1.00
Pt1367 Pt    0.31755   0.50000   0.68257   0.00000  Uiso   1.00
Pt1368 Pt    0.50002   0.24195   0.50010   0.00000  Uiso   1.00
Pt1369 Pt    0.68249   0.50000   0.68257   0.00000  Uiso   1.00
Pt1370 Pt    0.52282   0.33872   0.29482   0.00000  Uiso   1.00
Pt1371 Pt    0.70530   0.33872   0.47730   0.00000  Uiso   1.00
Pt1372 Pt    0.70530   0.33872   0.52291   0.00000  Uiso   1.00
Pt1373 Pt    0.52282   0.33872   0.70538   0.00000  Uiso   1.00
Pt1374 Pt    0.75092   0.46774   0.43168   0.00000  Uiso   1.00
Pt1375 Pt    0.56845   0.46774   0.24920   0.00000  Uiso   1.00
Pt1376 Pt    0.61407   0.27420   0.43168   0.00000  Uiso   1.00
Pt1377 Pt    0.75092   0.46774   0.56853   0.00000  Uiso   1.00
Pt1378 Pt    0.43159   0.27420   0.38605   0.00000  Uiso   1.00
Pt1379 Pt    0.43159   0.27420   0.61415   0.00000  Uiso   1.00
Pt1380 Pt    0.61407   0.27420   0.56853   0.00000  Uiso   1.00
Pt1381 Pt    0.56845   0.46774   0.75100   0.00000  Uiso   1.00
Pt1382 Pt    0.75092   0.53226   0.43168   0.00000  Uiso   1.00
Pt1383 Pt    0.56845   0.53226   0.24920   0.00000  Uiso   1.00
Pt1384 Pt    0.56845   0.27420   0.38605   0.00000  Uiso   1.00
Pt1385 Pt    0.38597   0.27420   0.43168   0.00000  Uiso   1.00
Pt1386 Pt    0.75092   0.53226   0.56853   0.00000  Uiso   1.00
Pt1387 Pt    0.38597   0.27420   0.56853   0.00000  Uiso   1.00
Pt1388 Pt    0.56845   0.27420   0.61415   0.00000  Uiso   1.00
Pt1389 Pt    0.56845   0.53226   0.75100   0.00000  Uiso   1.00
Pt1390 Pt    0.70530   0.46774   0.34044   0.00000  Uiso   1.00
Pt1391 Pt    0.34036   0.46774   0.29482   0.00000  Uiso   1.00
Pt1392 Pt    0.34036   0.46774   0.70538   0.00000  Uiso   1.00
Pt1393 Pt    0.70530   0.46774   0.65976   0.00000  Uiso   1.00
Pt1394 Pt    0.70530   0.66128   0.52291   0.00000  Uiso   1.00
Pt1395 Pt    0.70530   0.66128   0.47730   0.00000  Uiso   1.00
Pt1396 Pt    0.52282   0.66128   0.29482   0.00000  Uiso   1.00
Pt1397 Pt    0.70530   0.53226   0.34044   0.00000  Uiso   1.00
Pt1398 Pt    0.65968   0.46774   0.29482   0.00000  Uiso   1.00
Pt1399 Pt    0.29474   0.46774   0.34044   0.00000  Uiso   1.00
Pt1400 Pt    0.34036   0.53226   0.29482   0.00000  Uiso   1.00
Pt1401 Pt    0.29474   0.46774   0.65976   0.00000  Uiso   1.00
Pt1402 Pt    0.47721   0.33872   0.29482   0.00000  Uiso   1.00
Pt1403 Pt    0.34036   0.53226   0.70538   0.00000  Uiso   1.00
Pt1404 Pt    0.29474   0.33872   0.52291   0.00000  Uiso   1.00
Pt1405 Pt    0.52282   0.66128   0.70538   0.00000  Uiso   1.00
Pt1406 Pt    0.65968   0.46774   0.70538   0.00000  Uiso   1.00
Pt1407 Pt    0.29474   0.33872   0.47730   0.00000  Uiso   1.00
Pt1408 Pt    0.70530   0.53226   0.65976   0.00000  Uiso   1.00
Pt1409 Pt    0.47721   0.33872   0.70538   0.00000  Uiso   1.00
Pt1410 Pt    0.65968   0.53226   0.29482   0.00000  Uiso   1.00
Pt1411 Pt    0.29474   0.53226   0.34044   0.00000  Uiso   1.00
Pt1412 Pt    0.29474   0.53226   0.65976   0.00000  Uiso   1.00
Pt1413 Pt    0.65968   0.53226   0.70538   0.00000  Uiso   1.00
Pt1414 Pt    0.61407   0.72580   0.43168   0.00000  Uiso   1.00
Pt1415 Pt    0.43159   0.72580   0.38605   0.00000  Uiso   1.00
Pt1416 Pt    0.61407   0.72580   0.56853   0.00000  Uiso   1.00
Pt1417 Pt    0.43159   0.72580   0.61415   0.00000  Uiso   1.00
Pt1418 Pt    0.43159   0.46774   0.24920   0.00000  Uiso   1.00
Pt1419 Pt    0.24912   0.46774   0.43168   0.00000  Uiso   1.00
Pt1420 Pt    0.24912   0.46774   0.56853   0.00000  Uiso   1.00
Pt1421 Pt    0.43159   0.46774   0.75100   0.00000  Uiso   1.00
Pt1422 Pt    0.56845   0.72580   0.38605   0.00000  Uiso   1.00
Pt1423 Pt    0.56845   0.72580   0.61415   0.00000  Uiso   1.00
Pt1424 Pt    0.38597   0.72580   0.43168   0.00000  Uiso   1.00
Pt1425 Pt    0.43159   0.53226   0.24920   0.00000  Uiso   1.00
Pt1426 Pt    0.38597   0.72580   0.56853   0.00000  Uiso   1.00
Pt1427 Pt    0.24912   0.53226   0.43168   0.00000  Uiso   1.00
Pt1428 Pt    0.24912   0.53226   0.56853   0.00000  Uiso   1.00
Pt1429 Pt    0.43159   0.53226   0.75100   0.00000  Uiso   1.00
Pt1430 Pt    0.47721   0.66128   0.29482   0.00000  Uiso   1.00
Pt1431 Pt    0.29474   0.66128   0.47730   0.00000  Uiso   1.00
Pt1432 Pt    0.29474   0.66128   0.52291   0.00000  Uiso   1.00
Pt1433 Pt    0.47721   0.66128   0.70538   0.00000  Uiso   1.00
Pt1434 Pt    0.54563   0.75805   0.45449   0.00000  Uiso   1.00
Pt1435 Pt    0.54563   0.75805   0.54572   0.00000  Uiso   1.00
Pt1436 Pt    0.45440   0.75805   0.45449   0.00000  Uiso   1.00
Pt1437 Pt    0.45440   0.62903   0.27201   0.00000  Uiso   1.00
Pt1438 Pt    0.72811   0.62903   0.45449   0.00000  Uiso   1.00
Pt1439 Pt    0.45440   0.75805   0.54572   0.00000  Uiso   1.00
Pt1440 Pt    0.68250   0.69354   0.50010   0.00000  Uiso   1.00
Pt1441 Pt    0.50002   0.69354   0.31763   0.00000  Uiso   1.00
Pt1442 Pt    0.54563   0.62903   0.27201   0.00000  Uiso   1.00
Pt1443 Pt    0.72810   0.50000   0.36325   0.00000  Uiso   1.00
Pt1444 Pt    0.63687   0.50000   0.27202   0.00000  Uiso   1.00
Pt1445 Pt    0.68249   0.56451   0.31763   0.00000  Uiso   1.00
Pt1446 Pt    0.27193   0.50000   0.36325   0.00000  Uiso   1.00
Pt1447 Pt    0.68249   0.43549   0.31763   0.00000  Uiso   1.00
Pt1448 Pt    0.72811   0.62903   0.54572   0.00000  Uiso   1.00
Pt1449 Pt    0.31755   0.56451   0.31763   0.00000  Uiso   1.00
Pt1450 Pt    0.27193   0.62903   0.45449   0.00000  Uiso   1.00
Pt1451 Pt    0.31754   0.69354   0.50010   0.00000  Uiso   1.00
Pt1452 Pt    0.45440   0.37097   0.27201   0.00000  Uiso   1.00
Pt1453 Pt    0.31755   0.43549   0.31763   0.00000  Uiso   1.00
Pt1454 Pt    0.36317   0.50000   0.27202   0.00000  Uiso   1.00
Pt1455 Pt    0.27193   0.50000   0.63696   0.00000  Uiso   1.00
Pt1456 Pt    0.31755   0.56451   0.68257   0.00000  Uiso   1.00
Pt1457 Pt    0.27193   0.62903   0.54572   0.00000  Uiso   1.00
Pt1458 Pt    0.31755   0.43549   0.68257   0.00000  Uiso   1.00
Pt1459 Pt    0.36317   0.50000   0.72819   0.00000  Uiso   1.00
Pt1460 Pt    0.50002   0.69354   0.68258   0.00000  Uiso   1.00
Pt1461 Pt    0.54563   0.37097   0.27201   0.00000  Uiso   1.00
Pt1462 Pt    0.45440   0.62903   0.72819   0.00000  Uiso   1.00
Pt1463 Pt    0.72811   0.37097   0.45449   0.00000  Uiso   1.00
Pt1464 Pt    0.63687   0.50000   0.72819   0.00000  Uiso   1.00
Pt1465 Pt    0.54563   0.62903   0.72819   0.00000  Uiso   1.00
Pt1466 Pt    0.45440   0.24195   0.45449   0.00000  Uiso   1.00
Pt1467 Pt    0.50002   0.30646   0.31763   0.00000  Uiso   1.00
Pt1468 Pt    0.45440   0.24195   0.54572   0.00000  Uiso   1.00
Pt1469 Pt    0.31754   0.30646   0.50010   0.00000  Uiso   1.00
Pt1470 Pt    0.68249   0.56451   0.68257   0.00000  Uiso   1.00
Pt1471 Pt    0.54563   0.24195   0.45449   0.00000  Uiso   1.00
Pt1472 Pt    0.54563   0.24195   0.54572   0.00000  Uiso   1.00
Pt1473 Pt    0.72811   0.37097   0.54572   0.00000  Uiso   1.00
Pt1474 Pt    0.68250   0.30646   0.50010   0.00000  Uiso   1.00
Pt1475 Pt    0.27193   0.37097   0.54572   0.00000  Uiso   1.00
Pt1476 Pt    0.72810   0.50000   0.63696   0.00000  Uiso   1.00
Pt1477 Pt    0.27193   0.37097   0.45449   0.00000  Uiso   1.00
Pt1478 Pt    0.68249   0.43549   0.68257   0.00000  Uiso   1.00
Pt1479 Pt    0.50002   0.30646   0.68258   0.00000  Uiso   1.00
Pt1480 Pt    0.54563   0.37097   0.72819   0.00000  Uiso   1.00
Pt1481 Pt    0.45440   0.37097   0.72819   0.00000  Uiso   1.00
Pt1482 Pt    0.70530   0.33872   0.43168   0.00000  Uiso   1.00
Pt1483 Pt    0.47721   0.40323   0.24921   0.00000  Uiso   1.00
Pt1484 Pt    0.43159   0.33872   0.29482   0.00000  Uiso   1.00
Pt1485 Pt    0.75091   0.40323   0.47729   0.00000  Uiso   1.00
Pt1486 Pt    0.70530   0.33872   0.56853   0.00000  Uiso   1.00
Pt1487 Pt    0.75091   0.40323   0.52291   0.00000  Uiso   1.00
Pt1488 Pt    0.43159   0.33872   0.70538   0.00000  Uiso   1.00
Pt1489 Pt    0.47721   0.40323   0.75100   0.00000  Uiso   1.00
Pt1490 Pt    0.47721   0.59677   0.24921   0.00000  Uiso   1.00
Pt1491 Pt    0.75091   0.59677   0.47729   0.00000  Uiso   1.00
Pt1492 Pt    0.56845   0.33872   0.29482   0.00000  Uiso   1.00
Pt1493 Pt    0.29474   0.33872   0.56853   0.00000  Uiso   1.00
Pt1494 Pt    0.75091   0.59677   0.52291   0.00000  Uiso   1.00
Pt1495 Pt    0.47721   0.59677   0.75100   0.00000  Uiso   1.00
Pt1496 Pt    0.29474   0.33872   0.43168   0.00000  Uiso   1.00
Pt1497 Pt    0.56845   0.33872   0.70538   0.00000  Uiso   1.00
Pt1498 Pt    0.43159   0.66128   0.29482   0.00000  Uiso   1.00
Pt1499 Pt    0.70530   0.66128   0.43168   0.00000  Uiso   1.00
Pt1500 Pt    0.70530   0.66128   0.56853   0.00000  Uiso   1.00
Pt1501 Pt    0.43159   0.66128   0.70538   0.00000  Uiso   1.00
Pt1502 Pt    0.52283   0.40323   0.24921   0.00000  Uiso   1.00
Pt1503 Pt    0.24912   0.40323   0.47729   0.00000  Uiso   1.00
Pt1504 Pt    0.52283   0.40323   0.75100   0.00000  Uiso   1.00
Pt1505 Pt    0.24912   0.40323   0.52291   0.00000  Uiso   1.00
Pt1506 Pt    0.56845   0.66128   0.29482   0.00000  Uiso   1.00
Pt1507 Pt    0.29474   0.66128   0.43168   0.00000  Uiso   1.00
Pt1508 Pt    0.52283   0.59677   0.24921   0.00000  Uiso   1.00
Pt1509 Pt    0.29474   0.66128   0.56853   0.00000  Uiso   1.00
Pt1510 Pt    0.56845   0.66128   0.70538   0.00000  Uiso   1.00
Pt1511 Pt    0.24912   0.59677   0.52291   0.00000  Uiso   1.00
Pt1512 Pt    0.24912   0.59677   0.47729   0.00000  Uiso   1.00
Pt1513 Pt    0.52283   0.59677   0.75100   0.00000  Uiso   1.00
Pt1514 Pt    0.59125   0.75805   0.50010   0.00000  Uiso   1.00
Pt1515 Pt    0.50002   0.75805   0.40887   0.00000  Uiso   1.00
Pt1516 Pt    0.50002   0.75805   0.59133   0.00000  Uiso   1.00
Pt1517 Pt    0.63687   0.56451   0.27202   0.00000  Uiso   1.00
Pt1518 Pt    0.72810   0.56451   0.36325   0.00000  Uiso   1.00
Pt1519 Pt    0.40879   0.75805   0.50010   0.00000  Uiso   1.00
Pt1520 Pt    0.63687   0.69354   0.36325   0.00000  Uiso   1.00
Pt1521 Pt    0.36317   0.69354   0.36325   0.00000  Uiso   1.00
Pt1522 Pt    0.50002   0.50000   0.22640   0.00000  Uiso   1.00
Pt1523 Pt    0.72810   0.43549   0.36325   0.00000  Uiso   1.00
Pt1524 Pt    0.36317   0.69354   0.63696   0.00000  Uiso   1.00
Pt1525 Pt    0.63687   0.43549   0.27202   0.00000  Uiso   1.00
Pt1526 Pt    0.36317   0.56451   0.72819   0.00000  Uiso   1.00
Pt1527 Pt    0.36317   0.56451   0.27202   0.00000  Uiso   1.00
Pt1528 Pt    0.27193   0.56451   0.63696   0.00000  Uiso   1.00
Pt1529 Pt    0.27193   0.43549   0.63696   0.00000  Uiso   1.00
Pt1530 Pt    0.36317   0.43549   0.27202   0.00000  Uiso   1.00
Pt1531 Pt    0.63687   0.30646   0.36325   0.00000  Uiso   1.00
Pt1532 Pt    0.27193   0.56451   0.36325   0.00000  Uiso   1.00
Pt1533 Pt    0.27193   0.43549   0.36325   0.00000  Uiso   1.00
Pt1534 Pt    0.63687   0.69354   0.63696   0.00000  Uiso   1.00
Pt1535 Pt    0.50002   0.50000   0.77381   0.00000  Uiso   1.00
Pt1536 Pt    0.72810   0.56451   0.63696   0.00000  Uiso   1.00
Pt1537 Pt    0.77373   0.50000   0.50010   0.00000  Uiso   1.00
Pt1538 Pt    0.22631   0.50000   0.50010   0.00000  Uiso   1.00
Pt1539 Pt    0.50002   0.24195   0.40887   0.00000  Uiso   1.00
Pt1540 Pt    0.50002   0.24195   0.59133   0.00000  Uiso   1.00
Pt1541 Pt    0.40879   0.24195   0.50010   0.00000  Uiso   1.00
Pt1542 Pt    0.36317   0.43549   0.72819   0.00000  Uiso   1.00
Pt1543 Pt    0.36317   0.30646   0.63696   0.00000  Uiso   1.00
Pt1544 Pt    0.63687   0.43549   0.72819   0.00000  Uiso   1.00
Pt1545 Pt    0.63687   0.56451   0.72819   0.00000  Uiso   1.00
Pt1546 Pt    0.63687   0.30646   0.63696   0.00000  Uiso   1.00
Pt1547 Pt    0.36317   0.30646   0.36325   0.00000  Uiso   1.00
Pt1548 Pt    0.59125   0.24195   0.50010   0.00000  Uiso   1.00
Pt1549 Pt    0.72810   0.43549   0.63696   0.00000  Uiso   1.00
Pt1550 Pt    0.65968   0.33872   0.34044   0.00000  Uiso   1.00
Pt1551 Pt    0.61406   0.27420   0.38606   0.00000  Uiso   1.00
Pt1552 Pt    0.65968   0.33872   0.65977   0.00000  Uiso   1.00
Pt1553 Pt    0.61406   0.27420   0.61414   0.00000  Uiso   1.00
Pt1554 Pt    0.56845   0.40323   0.24920   0.00000  Uiso   1.00
Pt1555 Pt    0.75092   0.40323   0.43168   0.00000  Uiso   1.00
Pt1556 Pt    0.47721   0.27420   0.34044   0.00000  Uiso   1.00
Pt1557 Pt    0.75092   0.40323   0.56853   0.00000  Uiso   1.00
Pt1558 Pt    0.65968   0.27420   0.52291   0.00000  Uiso   1.00
Pt1559 Pt    0.65968   0.27420   0.47729   0.00000  Uiso   1.00
Pt1560 Pt    0.56845   0.40323   0.75100   0.00000  Uiso   1.00
Pt1561 Pt    0.47721   0.27420   0.65977   0.00000  Uiso   1.00
Pt1562 Pt    0.56845   0.59677   0.24920   0.00000  Uiso   1.00
Pt1563 Pt    0.75092   0.59677   0.43168   0.00000  Uiso   1.00
Pt1564 Pt    0.75091   0.46774   0.38606   0.00000  Uiso   1.00
Pt1565 Pt    0.70530   0.40323   0.34044   0.00000  Uiso   1.00
Pt1566 Pt    0.38598   0.46774   0.24921   0.00000  Uiso   1.00
Pt1567 Pt    0.52283   0.27420   0.34044   0.00000  Uiso   1.00
Pt1568 Pt    0.34036   0.40323   0.70538   0.00000  Uiso   1.00
Pt1569 Pt    0.34035   0.27420   0.52291   0.00000  Uiso   1.00
Pt1570 Pt    0.38598   0.46774   0.75100   0.00000  Uiso   1.00
Pt1571 Pt    0.34036   0.40323   0.29482   0.00000  Uiso   1.00
Pt1572 Pt    0.34035   0.27420   0.47729   0.00000  Uiso   1.00
Pt1573 Pt    0.75092   0.59677   0.56853   0.00000  Uiso   1.00
Pt1574 Pt    0.52283   0.27420   0.65977   0.00000  Uiso   1.00
Pt1575 Pt    0.75091   0.46774   0.61414   0.00000  Uiso   1.00
Pt1576 Pt    0.56845   0.59677   0.75100   0.00000  Uiso   1.00
Pt1577 Pt    0.70530   0.40323   0.65976   0.00000  Uiso   1.00
Pt1578 Pt    0.65968   0.66128   0.34044   0.00000  Uiso   1.00
Pt1579 Pt    0.75091   0.53226   0.38606   0.00000  Uiso   1.00
Pt1580 Pt    0.38598   0.53226   0.24921   0.00000  Uiso   1.00
Pt1581 Pt    0.65968   0.40323   0.29482   0.00000  Uiso   1.00
Pt1582 Pt    0.65968   0.66128   0.65977   0.00000  Uiso   1.00
Pt1583 Pt    0.29474   0.40323   0.34044   0.00000  Uiso   1.00
Pt1584 Pt    0.38598   0.53226   0.75100   0.00000  Uiso   1.00
Pt1585 Pt    0.38598   0.27420   0.61414   0.00000  Uiso   1.00
Pt1586 Pt    0.75091   0.53226   0.61414   0.00000  Uiso   1.00
Pt1587 Pt    0.29474   0.40323   0.65976   0.00000  Uiso   1.00
Pt1588 Pt    0.38598   0.27420   0.38606   0.00000  Uiso   1.00
Pt1589 Pt    0.65968   0.40323   0.70538   0.00000  Uiso   1.00
Pt1590 Pt    0.61406   0.72580   0.38606   0.00000  Uiso   1.00
Pt1591 Pt    0.61406   0.46774   0.24921   0.00000  Uiso   1.00
Pt1592 Pt    0.70530   0.59677   0.34044   0.00000  Uiso   1.00
Pt1593 Pt    0.61406   0.72580   0.61414   0.00000  Uiso   1.00
Pt1594 Pt    0.24912   0.46774   0.61414   0.00000  Uiso   1.00
Pt1595 Pt    0.24912   0.46774   0.38606   0.00000  Uiso   1.00
Pt1596 Pt    0.34036   0.59677   0.29482   0.00000  Uiso   1.00
Pt1597 Pt    0.34035   0.33872   0.34044   0.00000  Uiso   1.00
Pt1598 Pt    0.34036   0.59677   0.70538   0.00000  Uiso   1.00
Pt1599 Pt    0.70530   0.59677   0.65976   0.00000  Uiso   1.00
Pt1600 Pt    0.61406   0.46774   0.75100   0.00000  Uiso   1.00
Pt1601 Pt    0.34035   0.33872   0.65977   0.00000  Uiso   1.00
Pt1602 Pt    0.65968   0.72580   0.52291   0.00000  Uiso   1.00
Pt1603 Pt    0.47721   0.72580   0.34044   0.00000  Uiso   1.00
Pt1604 Pt    0.65968   0.72580   0.47729   0.00000  Uiso   1.00
Pt1605 Pt    0.65968   0.59677   0.29482   0.00000  Uiso   1.00
Pt1606 Pt    0.47721   0.72580   0.65977   0.00000  Uiso   1.00
Pt1607 Pt    0.61406   0.53226   0.24921   0.00000  Uiso   1.00
Pt1608 Pt    0.24912   0.53226   0.61414   0.00000  Uiso   1.00
Pt1609 Pt    0.29474   0.59677   0.34044   0.00000  Uiso   1.00
Pt1610 Pt    0.43159   0.40323   0.24920   0.00000  Uiso   1.00
Pt1611 Pt    0.24912   0.53226   0.38606   0.00000  Uiso   1.00
Pt1612 Pt    0.29474   0.59677   0.65976   0.00000  Uiso   1.00
Pt1613 Pt    0.24912   0.40323   0.56853   0.00000  Uiso   1.00
Pt1614 Pt    0.61406   0.53226   0.75100   0.00000  Uiso   1.00
Pt1615 Pt    0.43159   0.40323   0.75100   0.00000  Uiso   1.00
Pt1616 Pt    0.65968   0.59677   0.70538   0.00000  Uiso   1.00
Pt1617 Pt    0.24912   0.40323   0.43168   0.00000  Uiso   1.00
Pt1618 Pt    0.52283   0.72580   0.34044   0.00000  Uiso   1.00
Pt1619 Pt    0.34035   0.72580   0.47729   0.00000  Uiso   1.00
Pt1620 Pt    0.43159   0.59677   0.24920   0.00000  Uiso   1.00
Pt1621 Pt    0.52283   0.72580   0.65977   0.00000  Uiso   1.00
Pt1622 Pt    0.24912   0.59677   0.56853   0.00000  Uiso   1.00
Pt1623 Pt    0.34035   0.72580   0.52291   0.00000  Uiso   1.00
Pt1624 Pt    0.24912   0.59677   0.43168   0.00000  Uiso   1.00
Pt1625 Pt    0.43159   0.59677   0.75100   0.00000  Uiso   1.00
Pt1626 Pt    0.38598   0.72580   0.38606   0.00000  Uiso   1.00
Pt1627 Pt    0.34035   0.66128   0.65977   0.00000  Uiso   1.00
Pt1628 Pt    0.38598   0.72580   0.61414   0.00000  Uiso   1.00
Pt1629 Pt    0.34035   0.66128   0.34044   0.00000  Uiso   1.00
Pt1630 Pt    0.59126   0.69354   0.31763   0.00000  Uiso   1.00
Pt1631 Pt    0.68249   0.69354   0.40886   0.00000  Uiso   1.00
Pt1632 Pt    0.40878   0.69354   0.31763   0.00000  Uiso   1.00
Pt1633 Pt    0.31755   0.69354   0.40886   0.00000  Uiso   1.00
Pt1634 Pt    0.31755   0.69354   0.59134   0.00000  Uiso   1.00
Pt1635 Pt    0.50002   0.56451   0.22640   0.00000  Uiso   1.00
Pt1636 Pt    0.40878   0.69354   0.68257   0.00000  Uiso   1.00
Pt1637 Pt    0.59126   0.30646   0.31763   0.00000  Uiso   1.00
Pt1638 Pt    0.68249   0.69354   0.59134   0.00000  Uiso   1.00
Pt1639 Pt    0.50002   0.43549   0.22640   0.00000  Uiso   1.00
Pt1640 Pt    0.68249   0.30646   0.40886   0.00000  Uiso   1.00
Pt1641 Pt    0.22631   0.56451   0.50010   0.00000  Uiso   1.00
Pt1642 Pt    0.77373   0.56451   0.50010   0.00000  Uiso   1.00
Pt1643 Pt    0.59126   0.69354   0.68257   0.00000  Uiso   1.00
Pt1644 Pt    0.31755   0.30646   0.40886   0.00000  Uiso   1.00
Pt1645 Pt    0.40878   0.30646   0.31763   0.00000  Uiso   1.00
Pt1646 Pt    0.77373   0.43549   0.50010   0.00000  Uiso   1.00
Pt1647 Pt    0.31755   0.30646   0.59134   0.00000  Uiso   1.00
Pt1648 Pt    0.22631   0.43549   0.50010   0.00000  Uiso   1.00
Pt1649 Pt    0.40878   0.30646   0.68257   0.00000  Uiso   1.00
Pt1650 Pt    0.50002   0.56451   0.77381   0.00000  Uiso   1.00
Pt1651 Pt    0.50002   0.43549   0.77381   0.00000  Uiso   1.00
Pt1652 Pt    0.59126   0.30646   0.68257   0.00000  Uiso   1.00
Pt1653 Pt    0.68249   0.30646   0.59134   0.00000  Uiso   1.00
Pt1654 Pt    0.70530   0.33872   0.38605   0.00000  Uiso   1.00
Pt1655 Pt    0.61407   0.33872   0.29482   0.00000  Uiso   1.00
Pt1656 Pt    0.65968   0.27420   0.43168   0.00000  Uiso   1.00
Pt1657 Pt    0.56845   0.27420   0.34044   0.00000  Uiso   1.00
Pt1658 Pt    0.61407   0.33872   0.70538   0.00000  Uiso   1.00
Pt1659 Pt    0.56845   0.27420   0.65976   0.00000  Uiso   1.00
Pt1660 Pt    0.70530   0.33872   0.61415   0.00000  Uiso   1.00
Pt1661 Pt    0.65968   0.27420   0.56853   0.00000  Uiso   1.00
Pt1662 Pt    0.61407   0.66128   0.29482   0.00000  Uiso   1.00
Pt1663 Pt    0.70530   0.66128   0.38605   0.00000  Uiso   1.00
Pt1664 Pt    0.70530   0.66128   0.61415   0.00000  Uiso   1.00
Pt1665 Pt    0.61407   0.66128   0.70538   0.00000  Uiso   1.00
Pt1666 Pt    0.34036   0.27420   0.43168   0.00000  Uiso   1.00
Pt1667 Pt    0.34036   0.27420   0.56853   0.00000  Uiso   1.00
Pt1668 Pt    0.43159   0.27420   0.34044   0.00000  Uiso   1.00
Pt1669 Pt    0.43159   0.27420   0.65976   0.00000  Uiso   1.00
Pt1670 Pt    0.65968   0.72580   0.56853   0.00000  Uiso   1.00
Pt1671 Pt    0.65968   0.72580   0.43168   0.00000  Uiso   1.00
Pt1672 Pt    0.56845   0.72580   0.34044   0.00000  Uiso   1.00
Pt1673 Pt    0.56845   0.72580   0.65976   0.00000  Uiso   1.00
Pt1674 Pt    0.29474   0.33872   0.38605   0.00000  Uiso   1.00
Pt1675 Pt    0.29474   0.33872   0.61415   0.00000  Uiso   1.00
Pt1676 Pt    0.38597   0.33872   0.29482   0.00000  Uiso   1.00
Pt1677 Pt    0.38597   0.33872   0.70538   0.00000  Uiso   1.00
Pt1678 Pt    0.29474   0.66128   0.61415   0.00000  Uiso   1.00
Pt1679 Pt    0.43159   0.72580   0.34044   0.00000  Uiso   1.00
Pt1680 Pt    0.34036   0.72580   0.43168   0.00000  Uiso   1.00
Pt1681 Pt    0.38597   0.66128   0.29482   0.00000  Uiso   1.00
Pt1682 Pt    0.34036   0.72580   0.56853   0.00000  Uiso   1.00
Pt1683 Pt    0.43159   0.72580   0.65976   0.00000  Uiso   1.00
Pt1684 Pt    0.29474   0.66128   0.38605   0.00000  Uiso   1.00
Pt1685 Pt    0.38597   0.66128   0.70538   0.00000  Uiso   1.00
Pt1686 Pt    0.59126   0.75805   0.40886   0.00000  Uiso   1.00
Pt1687 Pt    0.40878   0.75805   0.40886   0.00000  Uiso   1.00
Pt1688 Pt    0.68249   0.62903   0.31763   0.00000  Uiso   1.00
Pt1689 Pt    0.59126   0.75805   0.59134   0.00000  Uiso   1.00
Pt1690 Pt    0.59125   0.50000   0.22640   0.00000  Uiso   1.00
Pt1691 Pt    0.31755   0.62903   0.68257   0.00000  Uiso   1.00
Pt1692 Pt    0.40878   0.75805   0.59134   0.00000  Uiso   1.00
Pt1693 Pt    0.31755   0.62903   0.31763   0.00000  Uiso   1.00
Pt1694 Pt    0.77373   0.50000   0.40887   0.00000  Uiso   1.00
Pt1695 Pt    0.22631   0.50000   0.40887   0.00000  Uiso   1.00
Pt1696 Pt    0.68249   0.37097   0.31763   0.00000  Uiso   1.00
Pt1697 Pt    0.40879   0.50000   0.22640   0.00000  Uiso   1.00
Pt1698 Pt    0.22631   0.50000   0.59133   0.00000  Uiso   1.00
Pt1699 Pt    0.59126   0.24195   0.40886   0.00000  Uiso   1.00
Pt1700 Pt    0.31755   0.37097   0.68257   0.00000  Uiso   1.00
Pt1701 Pt    0.77373   0.50000   0.59133   0.00000  Uiso   1.00
Pt1702 Pt    0.31755   0.37097   0.31763   0.00000  Uiso   1.00
Pt1703 Pt    0.68249   0.62903   0.68257   0.00000  Uiso   1.00
Pt1704 Pt    0.40879   0.50000   0.77381   0.00000  Uiso   1.00
Pt1705 Pt    0.40878   0.24195   0.40886   0.00000  Uiso   1.00
Pt1706 Pt    0.59126   0.24195   0.59134   0.00000  Uiso   1.00
Pt1707 Pt    0.59125   0.50000   0.77381   0.00000  Uiso   1.00
Pt1708 Pt    0.40878   0.24195   0.59134   0.00000  Uiso   1.00
Pt1709 Pt    0.68249   0.37097   0.68257   0.00000  Uiso   1.00
Pt1710 Pt    0.70530   0.46774   0.29482   0.00000  Uiso   1.00
Pt1711 Pt    0.52283   0.20969   0.47729   0.00000  Uiso   1.00
Pt1712 Pt    0.52283   0.20969   0.52291   0.00000  Uiso   1.00
Pt1713 Pt    0.70530   0.46774   0.70538   0.00000  Uiso   1.00
Pt1714 Pt    0.70530   0.53226   0.29482   0.00000  Uiso   1.00
Pt1715 Pt    0.47721   0.20969   0.52291   0.00000  Uiso   1.00
Pt1716 Pt    0.47721   0.20969   0.47729   0.00000  Uiso   1.00
Pt1717 Pt    0.70530   0.53226   0.70538   0.00000  Uiso   1.00
Pt1718 Pt    0.38598   0.40323   0.24921   0.00000  Uiso   1.00
Pt1719 Pt    0.75091   0.40323   0.38606   0.00000  Uiso   1.00
Pt1720 Pt    0.38598   0.40323   0.75100   0.00000  Uiso   1.00
Pt1721 Pt    0.75091   0.40323   0.61414   0.00000  Uiso   1.00
Pt1722 Pt    0.75091   0.59677   0.38606   0.00000  Uiso   1.00
Pt1723 Pt    0.38598   0.59677   0.24921   0.00000  Uiso   1.00
Pt1724 Pt    0.61406   0.40323   0.24921   0.00000  Uiso   1.00
Pt1725 Pt    0.24912   0.40323   0.61414   0.00000  Uiso   1.00
Pt1726 Pt    0.24912   0.40323   0.38606   0.00000  Uiso   1.00
Pt1727 Pt    0.75091   0.59677   0.61414   0.00000  Uiso   1.00
Pt1728 Pt    0.38598   0.59677   0.75100   0.00000  Uiso   1.00
Pt1729 Pt    0.61406   0.40323   0.75100   0.00000  Uiso   1.00
Pt1730 Pt    0.61406   0.59677   0.24921   0.00000  Uiso   1.00
Pt1731 Pt    0.24912   0.59677   0.38606   0.00000  Uiso   1.00
Pt1732 Pt    0.24912   0.59677   0.61414   0.00000  Uiso   1.00
Pt1733 Pt    0.61406   0.59677   0.75100   0.00000  Uiso   1.00
Pt1734 Pt    0.52283   0.79031   0.52291   0.00000  Uiso   1.00
Pt1735 Pt    0.52283   0.79031   0.47729   0.00000  Uiso   1.00
Pt1736 Pt    0.29474   0.46774   0.29482   0.00000  Uiso   1.00
Pt1737 Pt    0.29474   0.46774   0.70538   0.00000  Uiso   1.00
Pt1738 Pt    0.47721   0.79031   0.47729   0.00000  Uiso   1.00
Pt1739 Pt    0.47721   0.79031   0.52291   0.00000  Uiso   1.00
Pt1740 Pt    0.29474   0.53226   0.29482   0.00000  Uiso   1.00
Pt1741 Pt    0.29474   0.53226   0.70538   0.00000  Uiso   1.00
Pt1742 Pt    0.63687   0.62903   0.27202   0.00000  Uiso   1.00
Pt1743 Pt    0.72810   0.62903   0.36325   0.00000  Uiso   1.00
Pt1744 Pt    0.45440   0.75805   0.36325   0.00000  Uiso   1.00
Pt1745 Pt    0.63687   0.75805   0.45448   0.00000  Uiso   1.00
Pt1746 Pt    0.63687   0.75805   0.54572   0.00000  Uiso   1.00
Pt1747 Pt    0.54564   0.75805   0.36325   0.00000  Uiso   1.00
Pt1748 Pt    0.77373   0.56451   0.40887   0.00000  Uiso   1.00
Pt1749 Pt    0.36317   0.75805   0.54572   0.00000  Uiso   1.00
Pt1750 Pt    0.36317   0.75805   0.45448   0.00000  Uiso   1.00
Pt1751 Pt    0.45440   0.75805   0.63696   0.00000  Uiso   1.00
Pt1752 Pt    0.59125   0.56451   0.22640   0.00000  Uiso   1.00
Pt1753 Pt    0.54564   0.75805   0.63696   0.00000  Uiso   1.00
Pt1754 Pt    0.63687   0.37097   0.27202   0.00000  Uiso   1.00
Pt1755 Pt    0.36317   0.62903   0.27202   0.00000  Uiso   1.00
Pt1756 Pt    0.72810   0.37097   0.36325   0.00000  Uiso   1.00
Pt1757 Pt    0.27193   0.62903   0.63696   0.00000  Uiso   1.00
Pt1758 Pt    0.36317   0.62903   0.72819   0.00000  Uiso   1.00
Pt1759 Pt    0.27193   0.62903   0.36325   0.00000  Uiso   1.00
Pt1760 Pt    0.59125   0.43549   0.22640   0.00000  Uiso   1.00
Pt1761 Pt    0.40879   0.56451   0.22640   0.00000  Uiso   1.00
Pt1762 Pt    0.77373   0.43549   0.40887   0.00000  Uiso   1.00
Pt1763 Pt    0.40879   0.43549   0.22640   0.00000  Uiso   1.00
Pt1764 Pt    0.22631   0.43549   0.40887   0.00000  Uiso   1.00
Pt1765 Pt    0.36317   0.37097   0.27202   0.00000  Uiso   1.00
Pt1766 Pt    0.22631   0.43549   0.59133   0.00000  Uiso   1.00
Pt1767 Pt    0.36317   0.24195   0.45448   0.00000  Uiso   1.00
Pt1768 Pt    0.27193   0.37097   0.63696   0.00000  Uiso   1.00
Pt1769 Pt    0.22631   0.56451   0.40887   0.00000  Uiso   1.00
Pt1770 Pt    0.27193   0.37097   0.36325   0.00000  Uiso   1.00
Pt1771 Pt    0.22631   0.56451   0.59133   0.00000  Uiso   1.00
Pt1772 Pt    0.40879   0.56451   0.77381   0.00000  Uiso   1.00
Pt1773 Pt    0.63687   0.24195   0.45448   0.00000  Uiso   1.00
Pt1774 Pt    0.54564   0.24195   0.36325   0.00000  Uiso   1.00
Pt1775 Pt    0.63687   0.62903   0.72819   0.00000  Uiso   1.00
Pt1776 Pt    0.72810   0.62903   0.63696   0.00000  Uiso   1.00
Pt1777 Pt    0.77373   0.56451   0.59133   0.00000  Uiso   1.00
Pt1778 Pt    0.54564   0.24195   0.63696   0.00000  Uiso   1.00
Pt1779 Pt    0.45440   0.24195   0.36325   0.00000  Uiso   1.00
Pt1780 Pt    0.36317   0.24195   0.54572   0.00000  Uiso   1.00
Pt1781 Pt    0.40879   0.43549   0.77381   0.00000  Uiso   1.00
Pt1782 Pt    0.45440   0.24195   0.63696   0.00000  Uiso   1.00
Pt1783 Pt    0.77373   0.43549   0.59133   0.00000  Uiso   1.00
Pt1784 Pt    0.36317   0.37097   0.72819   0.00000  Uiso   1.00
Pt1785 Pt    0.63687   0.24195   0.54572   0.00000  Uiso   1.00
Pt1786 Pt    0.59125   0.43549   0.77381   0.00000  Uiso   1.00
Pt1787 Pt    0.63687   0.37097   0.72819   0.00000  Uiso   1.00
Pt1788 Pt    0.59125   0.56451   0.77381   0.00000  Uiso   1.00
Pt1789 Pt    0.72810   0.37097   0.63696   0.00000  Uiso   1.00
Pt1790 Pt    0.47721   0.33872   0.24921   0.00000  Uiso   1.00
Pt1791 Pt    0.75091   0.46774   0.34044   0.00000  Uiso   1.00
Pt1792 Pt    0.65968   0.46774   0.24921   0.00000  Uiso   1.00
Pt1793 Pt    0.75091   0.33872   0.52291   0.00000  Uiso   1.00
Pt1794 Pt    0.75091   0.33872   0.47729   0.00000  Uiso   1.00
Pt1795 Pt    0.47721   0.20969   0.43168   0.00000  Uiso   1.00
Pt1796 Pt    0.47721   0.20969   0.56853   0.00000  Uiso   1.00
Pt1797 Pt    0.47721   0.33872   0.75100   0.00000  Uiso   1.00
Pt1798 Pt    0.56845   0.20969   0.52291   0.00000  Uiso   1.00
Pt1799 Pt    0.56845   0.20969   0.47730   0.00000  Uiso   1.00
Pt1800 Pt    0.65968   0.46774   0.75100   0.00000  Uiso   1.00
Pt1801 Pt    0.75091   0.46774   0.65977   0.00000  Uiso   1.00
Pt1802 Pt    0.52283   0.46774   0.20358   0.00000  Uiso   1.00
Pt1803 Pt    0.65968   0.27420   0.38606   0.00000  Uiso   1.00
Pt1804 Pt    0.79654   0.46774   0.47729   0.00000  Uiso   1.00
Pt1805 Pt    0.52283   0.46774   0.79662   0.00000  Uiso   1.00
Pt1806 Pt    0.79654   0.46774   0.52291   0.00000  Uiso   1.00
Pt1807 Pt    0.43159   0.20969   0.52291   0.00000  Uiso   1.00
Pt1808 Pt    0.38598   0.27420   0.34044   0.00000  Uiso   1.00
Pt1809 Pt    0.75091   0.53226   0.34044   0.00000  Uiso   1.00
Pt1810 Pt    0.65968   0.53226   0.24921   0.00000  Uiso   1.00
Pt1811 Pt    0.38598   0.27420   0.65977   0.00000  Uiso   1.00
Pt1812 Pt    0.65968   0.27420   0.61414   0.00000  Uiso   1.00
Pt1813 Pt    0.43159   0.20969   0.47730   0.00000  Uiso   1.00
Pt1814 Pt    0.52282   0.20969   0.43168   0.00000  Uiso   1.00
Pt1815 Pt    0.52282   0.20969   0.56853   0.00000  Uiso   1.00
Pt1816 Pt    0.65968   0.53226   0.75100   0.00000  Uiso   1.00
Pt1817 Pt    0.75091   0.53226   0.65977   0.00000  Uiso   1.00
Pt1818 Pt    0.52283   0.53226   0.20358   0.00000  Uiso   1.00
Pt1819 Pt    0.61406   0.27420   0.34044   0.00000  Uiso   1.00
Pt1820 Pt    0.79654   0.53226   0.47729   0.00000  Uiso   1.00
Pt1821 Pt    0.34035   0.27420   0.61414   0.00000  Uiso   1.00
Pt1822 Pt    0.79654   0.53226   0.52291   0.00000  Uiso   1.00
Pt1823 Pt    0.34035   0.27420   0.38606   0.00000  Uiso   1.00
Pt1824 Pt    0.52283   0.53226   0.79662   0.00000  Uiso   1.00
Pt1825 Pt    0.61406   0.27420   0.65977   0.00000  Uiso   1.00
Pt1826 Pt    0.47721   0.66128   0.24921   0.00000  Uiso   1.00
Pt1827 Pt    0.75091   0.66128   0.47729   0.00000  Uiso   1.00
Pt1828 Pt    0.75091   0.66128   0.52291   0.00000  Uiso   1.00
Pt1829 Pt    0.47721   0.66128   0.75100   0.00000  Uiso   1.00
Pt1830 Pt    0.52283   0.33872   0.24921   0.00000  Uiso   1.00
Pt1831 Pt    0.24912   0.33872   0.52291   0.00000  Uiso   1.00
Pt1832 Pt    0.24912   0.33872   0.47729   0.00000  Uiso   1.00
Pt1833 Pt    0.52283   0.33872   0.75100   0.00000  Uiso   1.00
Pt1834 Pt    0.65968   0.72580   0.38606   0.00000  Uiso   1.00
Pt1835 Pt    0.38598   0.72580   0.34044   0.00000  Uiso   1.00
Pt1836 Pt    0.47721   0.46774   0.20358   0.00000  Uiso   1.00
Pt1837 Pt    0.38598   0.72580   0.65977   0.00000  Uiso   1.00
Pt1838 Pt    0.65968   0.72580   0.61414   0.00000  Uiso   1.00
Pt1839 Pt    0.20350   0.46774   0.52291   0.00000  Uiso   1.00
Pt1840 Pt    0.20350   0.46774   0.47729   0.00000  Uiso   1.00
Pt1841 Pt    0.47721   0.46774   0.79662   0.00000  Uiso   1.00
Pt1842 Pt    0.47721   0.79031   0.43168   0.00000  Uiso   1.00
Pt1843 Pt    0.56845   0.79031   0.52291   0.00000  Uiso   1.00
Pt1844 Pt    0.34035   0.72580   0.38606   0.00000  Uiso   1.00
Pt1845 Pt    0.47721   0.79031   0.56853   0.00000  Uiso   1.00
Pt1846 Pt    0.56845   0.79031   0.47730   0.00000  Uiso   1.00
Pt1847 Pt    0.61406   0.72580   0.34044   0.00000  Uiso   1.00
Pt1848 Pt    0.34035   0.72580   0.61414   0.00000  Uiso   1.00
Pt1849 Pt    0.47721   0.53226   0.20358   0.00000  Uiso   1.00
Pt1850 Pt    0.20350   0.53226   0.52291   0.00000  Uiso   1.00
Pt1851 Pt    0.34035   0.46774   0.24921   0.00000  Uiso   1.00
Pt1852 Pt    0.24912   0.46774   0.34044   0.00000  Uiso   1.00
Pt1853 Pt    0.61406   0.72580   0.65977   0.00000  Uiso   1.00
Pt1854 Pt    0.24912   0.46774   0.65977   0.00000  Uiso   1.00
Pt1855 Pt    0.20350   0.53226   0.47729   0.00000  Uiso   1.00
Pt1856 Pt    0.34035   0.46774   0.75100   0.00000  Uiso   1.00
Pt1857 Pt    0.47721   0.53226   0.79662   0.00000  Uiso   1.00
Pt1858 Pt    0.52282   0.79031   0.43168   0.00000  Uiso   1.00
Pt1859 Pt    0.43159   0.79031   0.47730   0.00000  Uiso   1.00
Pt1860 Pt    0.52282   0.79031   0.56853   0.00000  Uiso   1.00
Pt1861 Pt    0.43159   0.79031   0.52291   0.00000  Uiso   1.00
Pt1862 Pt    0.52283   0.66128   0.24921   0.00000  Uiso   1.00
Pt1863 Pt    0.24912   0.66128   0.47729   0.00000  Uiso   1.00
Pt1864 Pt    0.24912   0.53226   0.34044   0.00000  Uiso   1.00
Pt1865 Pt    0.24912   0.53226   0.65977   0.00000  Uiso   1.00
Pt1866 Pt    0.34035   0.53226   0.24921   0.00000  Uiso   1.00
Pt1867 Pt    0.24912   0.66128   0.52291   0.00000  Uiso   1.00
Pt1868 Pt    0.52283   0.66128   0.75100   0.00000  Uiso   1.00
Pt1869 Pt    0.34035   0.53226   0.75100   0.00000  Uiso   1.00
Pt1870 Pt    0.45440   0.69354   0.27201   0.00000  Uiso   1.00
Pt1871 Pt    0.54563   0.69354   0.27201   0.00000  Uiso   1.00
Pt1872 Pt    0.72811   0.69354   0.45449   0.00000  Uiso   1.00
Pt1873 Pt    0.50002   0.62903   0.22640   0.00000  Uiso   1.00
Pt1874 Pt    0.22631   0.62903   0.50010   0.00000  Uiso   1.00
Pt1875 Pt    0.45440   0.69354   0.72819   0.00000  Uiso   1.00
Pt1876 Pt    0.27193   0.69354   0.54572   0.00000  Uiso   1.00
Pt1877 Pt    0.27193   0.69354   0.45449   0.00000  Uiso   1.00
Pt1878 Pt    0.72811   0.69354   0.54572   0.00000  Uiso   1.00
Pt1879 Pt    0.54563   0.30646   0.27201   0.00000  Uiso   1.00
Pt1880 Pt    0.77373   0.62903   0.50010   0.00000  Uiso   1.00
Pt1881 Pt    0.50002   0.37097   0.22640   0.00000  Uiso   1.00
Pt1882 Pt    0.45440   0.30646   0.27201   0.00000  Uiso   1.00
Pt1883 Pt    0.72811   0.30646   0.45449   0.00000  Uiso   1.00
Pt1884 Pt    0.50002   0.62903   0.77381   0.00000  Uiso   1.00
Pt1885 Pt    0.54563   0.69354   0.72819   0.00000  Uiso   1.00
Pt1886 Pt    0.77373   0.37097   0.50010   0.00000  Uiso   1.00
Pt1887 Pt    0.72811   0.30646   0.54572   0.00000  Uiso   1.00
Pt1888 Pt    0.22631   0.37097   0.50010   0.00000  Uiso   1.00
Pt1889 Pt    0.27193   0.30646   0.54572   0.00000  Uiso   1.00
Pt1890 Pt    0.27193   0.30646   0.45449   0.00000  Uiso   1.00
Pt1891 Pt    0.45440   0.30646   0.72819   0.00000  Uiso   1.00
Pt1892 Pt    0.50002   0.37097   0.77381   0.00000  Uiso   1.00
Pt1893 Pt    0.54563   0.30646   0.72819   0.00000  Uiso   1.00
Pt1894 Pt    0.52282   0.27420   0.29482   0.00000  Uiso   1.00
Pt1895 Pt    0.56845   0.33872   0.24920   0.00000  Uiso   1.00
Pt1896 Pt    0.75092   0.33872   0.43168   0.00000  Uiso   1.00
Pt1897 Pt    0.70530   0.27420   0.47730   0.00000  Uiso   1.00
Pt1898 Pt    0.70530   0.40323   0.29482   0.00000  Uiso   1.00
Pt1899 Pt    0.70530   0.27420   0.52291   0.00000  Uiso   1.00
Pt1900 Pt    0.75092   0.33872   0.56853   0.00000  Uiso   1.00
Pt1901 Pt    0.52282   0.27420   0.70538   0.00000  Uiso   1.00
Pt1902 Pt    0.56845   0.20969   0.43168   0.00000  Uiso   1.00
Pt1903 Pt    0.56845   0.20969   0.56853   0.00000  Uiso   1.00
Pt1904 Pt    0.56845   0.33872   0.75100   0.00000  Uiso   1.00
Pt1905 Pt    0.70530   0.40323   0.70538   0.00000  Uiso   1.00
Pt1906 Pt    0.79653   0.46774   0.43168   0.00000  Uiso   1.00
Pt1907 Pt    0.70530   0.33872   0.34044   0.00000  Uiso   1.00
Pt1908 Pt    0.43159   0.46774   0.20359   0.00000  Uiso   1.00
Pt1909 Pt    0.43159   0.20969   0.43168   0.00000  Uiso   1.00
Pt1910 Pt    0.70530   0.59677   0.29482   0.00000  Uiso   1.00
Pt1911 Pt    0.34036   0.33872   0.29482   0.00000  Uiso   1.00
Pt1912 Pt    0.79653   0.46774   0.56853   0.00000  Uiso   1.00
Pt1913 Pt    0.34036   0.33872   0.70538   0.00000  Uiso   1.00
Pt1914 Pt    0.43159   0.46774   0.79661   0.00000  Uiso   1.00
Pt1915 Pt    0.70530   0.33872   0.65976   0.00000  Uiso   1.00
Pt1916 Pt    0.43159   0.20969   0.56853   0.00000  Uiso   1.00
Pt1917 Pt    0.70530   0.59677   0.70538   0.00000  Uiso   1.00
Pt1918 Pt    0.79653   0.53226   0.43168   0.00000  Uiso   1.00
Pt1919 Pt    0.43159   0.53226   0.20359   0.00000  Uiso   1.00
Pt1920 Pt    0.65968   0.33872   0.29482   0.00000  Uiso   1.00
Pt1921 Pt    0.43159   0.53226   0.79661   0.00000  Uiso   1.00
Pt1922 Pt    0.79653   0.53226   0.56853   0.00000  Uiso   1.00
Pt1923 Pt    0.29474   0.33872   0.34044   0.00000  Uiso   1.00
Pt1924 Pt    0.29474   0.33872   0.65976   0.00000  Uiso   1.00
Pt1925 Pt    0.65968   0.33872   0.70538   0.00000  Uiso   1.00
Pt1926 Pt    0.56845   0.66128   0.24920   0.00000  Uiso   1.00
Pt1927 Pt    0.75092   0.66128   0.43168   0.00000  Uiso   1.00
Pt1928 Pt    0.75092   0.66128   0.56853   0.00000  Uiso   1.00
Pt1929 Pt    0.56845   0.66128   0.75100   0.00000  Uiso   1.00
Pt1930 Pt    0.29474   0.27420   0.52291   0.00000  Uiso   1.00
Pt1931 Pt    0.47721   0.27420   0.29482   0.00000  Uiso   1.00
Pt1932 Pt    0.47721   0.27420   0.70538   0.00000  Uiso   1.00
Pt1933 Pt    0.29474   0.27420   0.47730   0.00000  Uiso   1.00
Pt1934 Pt    0.52282   0.72580   0.29482   0.00000  Uiso   1.00
Pt1935 Pt    0.70530   0.72580   0.47730   0.00000  Uiso   1.00
Pt1936 Pt    0.70530   0.72580   0.52291   0.00000  Uiso   1.00
Pt1937 Pt    0.52282   0.72580   0.70538   0.00000  Uiso   1.00
Pt1938 Pt    0.43159   0.33872   0.24920   0.00000  Uiso   1.00
Pt1939 Pt    0.24912   0.33872   0.43168   0.00000  Uiso   1.00
Pt1940 Pt    0.24912   0.33872   0.56853   0.00000  Uiso   1.00
Pt1941 Pt    0.43159   0.33872   0.75100   0.00000  Uiso   1.00
Pt1942 Pt    0.70530   0.66128   0.34044   0.00000  Uiso   1.00
Pt1943 Pt    0.34036   0.66128   0.29482   0.00000  Uiso   1.00
Pt1944 Pt    0.34036   0.66128   0.70538   0.00000  Uiso   1.00
Pt1945 Pt    0.56845   0.46774   0.20359   0.00000  Uiso   1.00
Pt1946 Pt    0.70530   0.66128   0.65976   0.00000  Uiso   1.00
Pt1947 Pt    0.20351   0.46774   0.56853   0.00000  Uiso   1.00
Pt1948 Pt    0.20351   0.46774   0.43168   0.00000  Uiso   1.00
Pt1949 Pt    0.56845   0.46774   0.79661   0.00000  Uiso   1.00
Pt1950 Pt    0.56845   0.79031   0.43168   0.00000  Uiso   1.00
Pt1951 Pt    0.65968   0.66128   0.29482   0.00000  Uiso   1.00
Pt1952 Pt    0.56845   0.53226   0.20359   0.00000  Uiso   1.00
Pt1953 Pt    0.56845   0.79031   0.56853   0.00000  Uiso   1.00
Pt1954 Pt    0.29474   0.66128   0.65976   0.00000  Uiso   1.00
Pt1955 Pt    0.29474   0.66128   0.34044   0.00000  Uiso   1.00
Pt1956 Pt    0.20351   0.53226   0.43168   0.00000  Uiso   1.00
Pt1957 Pt    0.29474   0.40323   0.29482   0.00000  Uiso   1.00
Pt1958 Pt    0.20351   0.53226   0.56853   0.00000  Uiso   1.00
Pt1959 Pt    0.65968   0.66128   0.70538   0.00000  Uiso   1.00
Pt1960 Pt    0.56845   0.53226   0.79661   0.00000  Uiso   1.00
Pt1961 Pt    0.29474   0.40323   0.70538   0.00000  Uiso   1.00
Pt1962 Pt    0.43159   0.79031   0.43168   0.00000  Uiso   1.00
Pt1963 Pt    0.47721   0.72580   0.29482   0.00000  Uiso   1.00
Pt1964 Pt    0.43159   0.79031   0.56853   0.00000  Uiso   1.00
Pt1965 Pt    0.43159   0.66128   0.24920   0.00000  Uiso   1.00
Pt1966 Pt    0.24912   0.66128   0.56853   0.00000  Uiso   1.00
Pt1967 Pt    0.43159   0.66128   0.75100   0.00000  Uiso   1.00
Pt1968 Pt    0.29474   0.72580   0.47730   0.00000  Uiso   1.00
Pt1969 Pt    0.24912   0.66128   0.43168   0.00000  Uiso   1.00
Pt1970 Pt    0.29474   0.72580   0.52291   0.00000  Uiso   1.00
Pt1971 Pt    0.47721   0.72580   0.70538   0.00000  Uiso   1.00
Pt1972 Pt    0.29474   0.59677   0.29482   0.00000  Uiso   1.00
Pt1973 Pt    0.29474   0.59677   0.70538   0.00000  Uiso   1.00
Pt1974 Pt    0.61406   0.20969   0.47729   0.00000  Uiso   1.00
Pt1975 Pt    0.52283   0.20969   0.38606   0.00000  Uiso   1.00
Pt1976 Pt    0.75091   0.40323   0.34044   0.00000  Uiso   1.00
Pt1977 Pt    0.65968   0.40323   0.24921   0.00000  Uiso   1.00
Pt1978 Pt    0.65968   0.40323   0.75100   0.00000  Uiso   1.00
Pt1979 Pt    0.61406   0.20969   0.52291   0.00000  Uiso   1.00
Pt1980 Pt    0.52283   0.20969   0.61414   0.00000  Uiso   1.00
Pt1981 Pt    0.75091   0.40323   0.65977   0.00000  Uiso   1.00
Pt1982 Pt    0.43159   0.27420   0.29482   0.00000  Uiso   1.00
Pt1983 Pt    0.52283   0.40323   0.20358   0.00000  Uiso   1.00
Pt1984 Pt    0.79654   0.40323   0.47729   0.00000  Uiso   1.00
Pt1985 Pt    0.70530   0.27420   0.43168   0.00000  Uiso   1.00
Pt1986 Pt    0.43159   0.27420   0.70538   0.00000  Uiso   1.00
Pt1987 Pt    0.79654   0.40323   0.52291   0.00000  Uiso   1.00
Pt1988 Pt    0.70530   0.27420   0.56853   0.00000  Uiso   1.00
Pt1989 Pt    0.52283   0.40323   0.79662   0.00000  Uiso   1.00
Pt1990 Pt    0.75091   0.59677   0.34044   0.00000  Uiso   1.00
Pt1991 Pt    0.65968   0.59677   0.24921   0.00000  Uiso   1.00
Pt1992 Pt    0.38598   0.20969   0.52291   0.00000  Uiso   1.00
Pt1993 Pt    0.38598   0.20969   0.47729   0.00000  Uiso   1.00
Pt1994 Pt    0.47721   0.20969   0.38606   0.00000  Uiso   1.00
Pt1995 Pt    0.47721   0.20969   0.61414   0.00000  Uiso   1.00
Pt1996 Pt    0.75091   0.59677   0.65977   0.00000  Uiso   1.00
Pt1997 Pt    0.65968   0.59677   0.75100   0.00000  Uiso   1.00
Pt1998 Pt    0.52283   0.59677   0.20358   0.00000  Uiso   1.00
Pt1999 Pt    0.29474   0.27420   0.56853   0.00000  Uiso   1.00
Pt2000 Pt    0.56845   0.27420   0.29482   0.00000  Uiso   1.00
Pt2001 Pt    0.79654   0.59677   0.52291   0.00000  Uiso   1.00
Pt2002 Pt    0.79654   0.59677   0.47729   0.00000  Uiso   1.00
Pt2003 Pt    0.29474   0.27420   0.43168   0.00000  Uiso   1.00
Pt2004 Pt    0.56845   0.27420   0.70538   0.00000  Uiso   1.00
Pt2005 Pt    0.52283   0.59677   0.79662   0.00000  Uiso   1.00
Pt2006 Pt    0.70530   0.72580   0.43168   0.00000  Uiso   1.00
Pt2007 Pt    0.43159   0.72580   0.29482   0.00000  Uiso   1.00
Pt2008 Pt    0.43159   0.72580   0.70538   0.00000  Uiso   1.00
Pt2009 Pt    0.47721   0.40323   0.20358   0.00000  Uiso   1.00
Pt2010 Pt    0.70530   0.72580   0.56853   0.00000  Uiso   1.00
Pt2011 Pt    0.20350   0.40323   0.47729   0.00000  Uiso   1.00
Pt2012 Pt    0.20350   0.40323   0.52291   0.00000  Uiso   1.00
Pt2013 Pt    0.47721   0.40323   0.79662   0.00000  Uiso   1.00
Pt2014 Pt    0.52283   0.79031   0.38606   0.00000  Uiso   1.00
Pt2015 Pt    0.61406   0.79031   0.52291   0.00000  Uiso   1.00
Pt2016 Pt    0.52283   0.79031   0.61414   0.00000  Uiso   1.00
Pt2017 Pt    0.61406   0.79031   0.47729   0.00000  Uiso   1.00
Pt2018 Pt    0.34035   0.40323   0.24921   0.00000  Uiso   1.00
Pt2019 Pt    0.24912   0.40323   0.34044   0.00000  Uiso   1.00
Pt2020 Pt    0.24912   0.40323   0.65977   0.00000  Uiso   1.00
Pt2021 Pt    0.34035   0.40323   0.75100   0.00000  Uiso   1.00
Pt2022 Pt    0.29474   0.72580   0.43168   0.00000  Uiso   1.00
Pt2023 Pt    0.56845   0.72580   0.29482   0.00000  Uiso   1.00
Pt2024 Pt    0.47721   0.59677   0.20358   0.00000  Uiso   1.00
Pt2025 Pt    0.29474   0.72580   0.56853   0.00000  Uiso   1.00
Pt2026 Pt    0.56845   0.72580   0.70538   0.00000  Uiso   1.00
Pt2027 Pt    0.20350   0.59677   0.52291   0.00000  Uiso   1.00
Pt2028 Pt    0.20350   0.59677   0.47729   0.00000  Uiso   1.00
Pt2029 Pt    0.47721   0.59677   0.79662   0.00000  Uiso   1.00
Pt2030 Pt    0.47721   0.79031   0.61414   0.00000  Uiso   1.00
Pt2031 Pt    0.38598   0.79031   0.52291   0.00000  Uiso   1.00
Pt2032 Pt    0.47721   0.79031   0.38606   0.00000  Uiso   1.00
Pt2033 Pt    0.38598   0.79031   0.47729   0.00000  Uiso   1.00
Pt2034 Pt    0.34035   0.59677   0.24921   0.00000  Uiso   1.00
Pt2035 Pt    0.24912   0.59677   0.34044   0.00000  Uiso   1.00
Pt2036 Pt    0.24912   0.59677   0.65977   0.00000  Uiso   1.00
Pt2037 Pt    0.34035   0.59677   0.75100   0.00000  Uiso   1.00
Pt2038 Pt    0.50002   0.75805   0.31763   0.00000  Uiso   1.00
Pt2039 Pt    0.77373   0.62903   0.40887   0.00000  Uiso   1.00
Pt2040 Pt    0.59125   0.62903   0.22640   0.00000  Uiso   1.00
Pt2041 Pt    0.68250   0.75805   0.50010   0.00000  Uiso   1.00
Pt2042 Pt    0.40879   0.62903   0.22640   0.00000  Uiso   1.00
Pt2043 Pt    0.40879   0.37097   0.22640   0.00000  Uiso   1.00
Pt2044 Pt    0.40879   0.62903   0.77381   0.00000  Uiso   1.00
Pt2045 Pt    0.59125   0.37097   0.22640   0.00000  Uiso   1.00
Pt2046 Pt    0.77373   0.62903   0.59133   0.00000  Uiso   1.00
Pt2047 Pt    0.22631   0.62903   0.59133   0.00000  Uiso   1.00
Pt2048 Pt    0.50002   0.75805   0.68258   0.00000  Uiso   1.00
Pt2049 Pt    0.31754   0.75805   0.50010   0.00000  Uiso   1.00
Pt2050 Pt    0.22631   0.62903   0.40887   0.00000  Uiso   1.00
Pt2051 Pt    0.22631   0.37097   0.59133   0.00000  Uiso   1.00
Pt2052 Pt    0.59125   0.62903   0.77381   0.00000  Uiso   1.00
Pt2053 Pt    0.50002   0.24195   0.31763   0.00000  Uiso   1.00
Pt2054 Pt    0.77373   0.37097   0.40887   0.00000  Uiso   1.00
Pt2055 Pt    0.77373   0.37097   0.59133   0.00000  Uiso   1.00
Pt2056 Pt    0.68250   0.24195   0.50010   0.00000  Uiso   1.00
Pt2057 Pt    0.22631   0.37097   0.40887   0.00000  Uiso   1.00
Pt2058 Pt    0.50002   0.24195   0.68258   0.00000  Uiso   1.00
Pt2059 Pt    0.31754   0.24195   0.50010   0.00000  Uiso   1.00
Pt2060 Pt    0.40879   0.37097   0.77381   0.00000  Uiso   1.00
Pt2061 Pt    0.59125   0.37097   0.77381   0.00000  Uiso   1.00
Pt2062 Pt    0.65968   0.27420   0.34044   0.00000  Uiso   1.00
Pt2063 Pt    0.65968   0.27420   0.65977   0.00000  Uiso   1.00
Pt2064 Pt    0.61406   0.46774   0.20358   0.00000  Uiso   1.00
Pt2065 Pt    0.79654   0.46774   0.38606   0.00000  Uiso   1.00
Pt2066 Pt    0.61407   0.20969   0.43168   0.00000  Uiso   1.00
Pt2067 Pt    0.43159   0.20969   0.38605   0.00000  Uiso   1.00
Pt2068 Pt    0.61406   0.46774   0.79662   0.00000  Uiso   1.00
Pt2069 Pt    0.43159   0.20969   0.61415   0.00000  Uiso   1.00
Pt2070 Pt    0.61407   0.20969   0.56853   0.00000  Uiso   1.00
Pt2071 Pt    0.79654   0.46774   0.61414   0.00000  Uiso   1.00
Pt2072 Pt    0.75091   0.33872   0.38606   0.00000  Uiso   1.00
Pt2073 Pt    0.38598   0.33872   0.24921   0.00000  Uiso   1.00
Pt2074 Pt    0.43159   0.40323   0.20359   0.00000  Uiso   1.00
Pt2075 Pt    0.79654   0.53226   0.38606   0.00000  Uiso   1.00
Pt2076 Pt    0.61406   0.53226   0.20358   0.00000  Uiso   1.00
Pt2077 Pt    0.79653   0.40323   0.56853   0.00000  Uiso   1.00
Pt2078 Pt    0.56845   0.20969   0.38605   0.00000  Uiso   1.00
Pt2079 Pt    0.38598   0.33872   0.75100   0.00000  Uiso   1.00
Pt2080 Pt    0.79653   0.40323   0.43168   0.00000  Uiso   1.00
Pt2081 Pt    0.75091   0.33872   0.61414   0.00000  Uiso   1.00
Pt2082 Pt    0.38597   0.20969   0.43168   0.00000  Uiso   1.00
Pt2083 Pt    0.43159   0.40323   0.79661   0.00000  Uiso   1.00
Pt2084 Pt    0.38597   0.20969   0.56853   0.00000  Uiso   1.00
Pt2085 Pt    0.56845   0.20969   0.61415   0.00000  Uiso   1.00
Pt2086 Pt    0.79654   0.53226   0.61414   0.00000  Uiso   1.00
Pt2087 Pt    0.61406   0.53226   0.79662   0.00000  Uiso   1.00
Pt2088 Pt    0.79653   0.59677   0.43168   0.00000  Uiso   1.00
Pt2089 Pt    0.61406   0.33872   0.24921   0.00000  Uiso   1.00
Pt2090 Pt    0.43159   0.59677   0.20359   0.00000  Uiso   1.00
Pt2091 Pt    0.24912   0.33872   0.61414   0.00000  Uiso   1.00
Pt2092 Pt    0.24912   0.33872   0.38606   0.00000  Uiso   1.00
Pt2093 Pt    0.43159   0.59677   0.79661   0.00000  Uiso   1.00
Pt2094 Pt    0.61406   0.33872   0.75100   0.00000  Uiso   1.00
Pt2095 Pt    0.79653   0.59677   0.56853   0.00000  Uiso   1.00
Pt2096 Pt    0.65968   0.72580   0.34044   0.00000  Uiso   1.00
Pt2097 Pt    0.65968   0.72580   0.65977   0.00000  Uiso   1.00
Pt2098 Pt    0.34035   0.27420   0.65977   0.00000  Uiso   1.00
Pt2099 Pt    0.34035   0.27420   0.34044   0.00000  Uiso   1.00
Pt2100 Pt    0.75091   0.66128   0.38606   0.00000  Uiso   1.00
Pt2101 Pt    0.38598   0.66128   0.24921   0.00000  Uiso   1.00
Pt2102 Pt    0.75091   0.66128   0.61414   0.00000  Uiso   1.00
Pt2103 Pt    0.56845   0.40323   0.20359   0.00000  Uiso   1.00
Pt2104 Pt    0.38598   0.66128   0.75100   0.00000  Uiso   1.00
Pt2105 Pt    0.20351   0.40323   0.56853   0.00000  Uiso   1.00
Pt2106 Pt    0.20351   0.40323   0.43168   0.00000  Uiso   1.00
Pt2107 Pt    0.56845   0.40323   0.79661   0.00000  Uiso   1.00
Pt2108 Pt    0.61407   0.79031   0.56853   0.00000  Uiso   1.00
Pt2109 Pt    0.43159   0.79031   0.38605   0.00000  Uiso   1.00
Pt2110 Pt    0.61406   0.66128   0.24921   0.00000  Uiso   1.00
Pt2111 Pt    0.61407   0.79031   0.43168   0.00000  Uiso   1.00
Pt2112 Pt    0.56845   0.59677   0.20359   0.00000  Uiso   1.00
Pt2113 Pt    0.24912   0.66128   0.38606   0.00000  Uiso   1.00
Pt2114 Pt    0.24912   0.66128   0.61414   0.00000  Uiso   1.00
Pt2115 Pt    0.43159   0.79031   0.61415   0.00000  Uiso   1.00
Pt2116 Pt    0.38598   0.46774   0.20358   0.00000  Uiso   1.00
Pt2117 Pt    0.20351   0.59677   0.43168   0.00000  Uiso   1.00
Pt2118 Pt    0.20350   0.46774   0.61414   0.00000  Uiso   1.00
Pt2119 Pt    0.20350   0.46774   0.38606   0.00000  Uiso   1.00
Pt2120 Pt    0.61406   0.66128   0.75100   0.00000  Uiso   1.00
Pt2121 Pt    0.20351   0.59677   0.56853   0.00000  Uiso   1.00
Pt2122 Pt    0.38598   0.46774   0.79662   0.00000  Uiso   1.00
Pt2123 Pt    0.56845   0.59677   0.79661   0.00000  Uiso   1.00
Pt2124 Pt    0.38597   0.79031   0.43168   0.00000  Uiso   1.00
Pt2125 Pt    0.56845   0.79031   0.61415   0.00000  Uiso   1.00
Pt2126 Pt    0.56845   0.79031   0.38605   0.00000  Uiso   1.00
Pt2127 Pt    0.38597   0.79031   0.56853   0.00000  Uiso   1.00
Pt2128 Pt    0.38598   0.53226   0.20358   0.00000  Uiso   1.00
Pt2129 Pt    0.20350   0.53226   0.38606   0.00000  Uiso   1.00
Pt2130 Pt    0.20350   0.53226   0.61414   0.00000  Uiso   1.00
Pt2131 Pt    0.38598   0.53226   0.79662   0.00000  Uiso   1.00
Pt2132 Pt    0.34035   0.72580   0.34044   0.00000  Uiso   1.00
Pt2133 Pt    0.34035   0.72580   0.65977   0.00000  Uiso   1.00
Pt2134 Pt    0.63687   0.75805   0.36325   0.00000  Uiso   1.00
Pt2135 Pt    0.36317   0.75805   0.36325   0.00000  Uiso   1.00
Pt2136 Pt    0.54563   0.50000   0.18078   0.00000  Uiso   1.00
Pt2137 Pt    0.68249   0.69354   0.31763   0.00000  Uiso   1.00
Pt2138 Pt    0.31755   0.69354   0.31763   0.00000  Uiso   1.00
Pt2139 Pt    0.31755   0.69354   0.68257   0.00000  Uiso   1.00
Pt2140 Pt    0.36317   0.75805   0.63696   0.00000  Uiso   1.00
Pt2141 Pt    0.68249   0.30646   0.31763   0.00000  Uiso   1.00
Pt2142 Pt    0.68249   0.69354   0.68257   0.00000  Uiso   1.00
Pt2143 Pt    0.27193   0.50000   0.27201   0.00000  Uiso   1.00
Pt2144 Pt    0.81934   0.50000   0.45449   0.00000  Uiso   1.00
Pt2145 Pt    0.50002   0.82257   0.50010   0.00000  Uiso   1.00
Pt2146 Pt    0.63687   0.75805   0.63696   0.00000  Uiso   1.00
Pt2147 Pt    0.45440   0.50000   0.18078   0.00000  Uiso   1.00
Pt2148 Pt    0.18070   0.50000   0.45449   0.00000  Uiso   1.00
Pt2149 Pt    0.31755   0.30646   0.31763   0.00000  Uiso   1.00
Pt2150 Pt    0.63687   0.24195   0.36325   0.00000  Uiso   1.00
Pt2151 Pt    0.31755   0.30646   0.68257   0.00000  Uiso   1.00
Pt2152 Pt    0.81934   0.50000   0.54572   0.00000  Uiso   1.00
Pt2153 Pt    0.36317   0.24195   0.63696   0.00000  Uiso   1.00
Pt2154 Pt    0.72811   0.50000   0.27201   0.00000  Uiso   1.00
Pt2155 Pt    0.18070   0.50000   0.54572   0.00000  Uiso   1.00
Pt2156 Pt    0.27193   0.50000   0.72819   0.00000  Uiso   1.00
Pt2157 Pt    0.45440   0.50000   0.81942   0.00000  Uiso   1.00
Pt2158 Pt    0.36317   0.24195   0.36325   0.00000  Uiso   1.00
Pt2159 Pt    0.50002   0.17743   0.50010   0.00000  Uiso   1.00
Pt2160 Pt    0.72811   0.50000   0.72819   0.00000  Uiso   1.00
Pt2161 Pt    0.68249   0.30646   0.68257   0.00000  Uiso   1.00
Pt2162 Pt    0.54563   0.50000   0.81942   0.00000  Uiso   1.00
Pt2163 Pt    0.63687   0.24195   0.63696   0.00000  Uiso   1.00
Pt2164 Pt    0.70530   0.27420   0.38605   0.00000  Uiso   1.00
Pt2165 Pt    0.61407   0.27420   0.29482   0.00000  Uiso   1.00
Pt2166 Pt    0.70530   0.27420   0.61415   0.00000  Uiso   1.00
Pt2167 Pt    0.61407   0.27420   0.70538   0.00000  Uiso   1.00
Pt2168 Pt    0.29474   0.46774   0.75100   0.00000  Uiso   1.00
Pt2169 Pt    0.75092   0.46774   0.29482   0.00000  Uiso   1.00
Pt2170 Pt    0.29474   0.46774   0.24920   0.00000  Uiso   1.00
Pt2171 Pt    0.75092   0.46774   0.70538   0.00000  Uiso   1.00
Pt2172 Pt    0.70530   0.72580   0.38605   0.00000  Uiso   1.00
Pt2173 Pt    0.61407   0.72580   0.29482   0.00000  Uiso   1.00
Pt2174 Pt    0.70530   0.72580   0.61415   0.00000  Uiso   1.00
Pt2175 Pt    0.29474   0.53226   0.24920   0.00000  Uiso   1.00
Pt2176 Pt    0.29474   0.27420   0.61415   0.00000  Uiso   1.00
Pt2177 Pt    0.24912   0.46774   0.70538   0.00000  Uiso   1.00
Pt2178 Pt    0.70530   0.46774   0.24920   0.00000  Uiso   1.00
Pt2179 Pt    0.29474   0.53226   0.75100   0.00000  Uiso   1.00
Pt2180 Pt    0.24912   0.46774   0.29482   0.00000  Uiso   1.00
Pt2181 Pt    0.61407   0.72580   0.70538   0.00000  Uiso   1.00
Pt2182 Pt    0.75092   0.53226   0.29482   0.00000  Uiso   1.00
Pt2183 Pt    0.38597   0.27420   0.70538   0.00000  Uiso   1.00
Pt2184 Pt    0.70530   0.46774   0.75100   0.00000  Uiso   1.00
Pt2185 Pt    0.29474   0.27420   0.38605   0.00000  Uiso   1.00
Pt2186 Pt    0.38597   0.27420   0.29482   0.00000  Uiso   1.00
Pt2187 Pt    0.75092   0.53226   0.70538   0.00000  Uiso   1.00
Pt2188 Pt    0.24912   0.53226   0.29482   0.00000  Uiso   1.00
Pt2189 Pt    0.70530   0.53226   0.24920   0.00000  Uiso   1.00
Pt2190 Pt    0.24912   0.53226   0.70538   0.00000  Uiso   1.00
Pt2191 Pt    0.70530   0.53226   0.75100   0.00000  Uiso   1.00
Pt2192 Pt    0.38597   0.72580   0.29482   0.00000  Uiso   1.00
Pt2193 Pt    0.29474   0.72580   0.61415   0.00000  Uiso   1.00
Pt2194 Pt    0.38597   0.72580   0.70538   0.00000  Uiso   1.00
Pt2195 Pt    0.29474   0.72580   0.38605   0.00000  Uiso   1.00
Pt2196 Pt    0.68249   0.75805   0.40886   0.00000  Uiso   1.00
Pt2197 Pt    0.72810   0.69354   0.36325   0.00000  Uiso   1.00
Pt2198 Pt    0.59126   0.75805   0.31763   0.00000  Uiso   1.00
Pt2199 Pt    0.63687   0.69354   0.27202   0.00000  Uiso   1.00
Pt2200 Pt    0.40878   0.75805   0.31763   0.00000  Uiso   1.00
Pt2201 Pt    0.31755   0.75805   0.40886   0.00000  Uiso   1.00
Pt2202 Pt    0.54563   0.56451   0.18078   0.00000  Uiso   1.00
Pt2203 Pt    0.36317   0.69354   0.27202   0.00000  Uiso   1.00
Pt2204 Pt    0.54563   0.82257   0.45449   0.00000  Uiso   1.00
Pt2205 Pt    0.27193   0.69354   0.36325   0.00000  Uiso   1.00
Pt2206 Pt    0.45440   0.82257   0.45449   0.00000  Uiso   1.00
Pt2207 Pt    0.59126   0.75805   0.68257   0.00000  Uiso   1.00
Pt2208 Pt    0.54563   0.43549   0.18078   0.00000  Uiso   1.00
Pt2209 Pt    0.72810   0.30646   0.36325   0.00000  Uiso   1.00
Pt2210 Pt    0.31755   0.75805   0.59134   0.00000  Uiso   1.00
Pt2211 Pt    0.63687   0.30646   0.27202   0.00000  Uiso   1.00
Pt2212 Pt    0.54563   0.82257   0.54572   0.00000  Uiso   1.00
Pt2213 Pt    0.27193   0.56451   0.27201   0.00000  Uiso   1.00
Pt2214 Pt    0.36317   0.69354   0.72819   0.00000  Uiso   1.00
Pt2215 Pt    0.27193   0.69354   0.63696   0.00000  Uiso   1.00
Pt2216 Pt    0.45440   0.56451   0.18078   0.00000  Uiso   1.00
Pt2217 Pt    0.68249   0.75805   0.59134   0.00000  Uiso   1.00
Pt2218 Pt    0.40878   0.75805   0.68257   0.00000  Uiso   1.00
Pt2219 Pt    0.31754   0.50000   0.22640   0.00000  Uiso   1.00
Pt2220 Pt    0.45440   0.82257   0.54572   0.00000  Uiso   1.00
Pt2221 Pt    0.77373   0.50000   0.31763   0.00000  Uiso   1.00
Pt2222 Pt    0.68250   0.50000   0.22640   0.00000  Uiso   1.00
Pt2223 Pt    0.63687   0.69354   0.72819   0.00000  Uiso   1.00
Pt2224 Pt    0.72811   0.56451   0.27201   0.00000  Uiso   1.00
Pt2225 Pt    0.27193   0.56451   0.72819   0.00000  Uiso   1.00
Pt2226 Pt    0.59126   0.24195   0.31763   0.00000  Uiso   1.00
Pt2227 Pt    0.81934   0.43549   0.45449   0.00000  Uiso   1.00
Pt2228 Pt    0.22631   0.50000   0.31763   0.00000  Uiso   1.00
Pt2229 Pt    0.45440   0.43549   0.18078   0.00000  Uiso   1.00
Pt2230 Pt    0.72810   0.69354   0.63696   0.00000  Uiso   1.00
Pt2231 Pt    0.22631   0.50000   0.68258   0.00000  Uiso   1.00
Pt2232 Pt    0.81934   0.56451   0.45449   0.00000  Uiso   1.00
Pt2233 Pt    0.18070   0.56451   0.45449   0.00000  Uiso   1.00
Pt2234 Pt    0.31754   0.50000   0.77381   0.00000  Uiso   1.00
Pt2235 Pt    0.31755   0.24195   0.59134   0.00000  Uiso   1.00
Pt2236 Pt    0.18070   0.56451   0.54572   0.00000  Uiso   1.00
Pt2237 Pt    0.36317   0.30646   0.27202   0.00000  Uiso   1.00
Pt2238 Pt    0.27193   0.30646   0.63696   0.00000  Uiso   1.00
Pt2239 Pt    0.40878   0.24195   0.31763   0.00000  Uiso   1.00
Pt2240 Pt    0.40878   0.24195   0.68257   0.00000  Uiso   1.00
Pt2241 Pt    0.27193   0.43549   0.27201   0.00000  Uiso   1.00
Pt2242 Pt    0.27193   0.43549   0.72819   0.00000  Uiso   1.00
Pt2243 Pt    0.72811   0.43549   0.27201   0.00000  Uiso   1.00
Pt2244 Pt    0.31755   0.24195   0.40886   0.00000  Uiso   1.00
Pt2245 Pt    0.68249   0.24195   0.40886   0.00000  Uiso   1.00
Pt2246 Pt    0.45440   0.56451   0.81942   0.00000  Uiso   1.00
Pt2247 Pt    0.68250   0.50000   0.77381   0.00000  Uiso   1.00
Pt2248 Pt    0.27193   0.30646   0.36325   0.00000  Uiso   1.00
Pt2249 Pt    0.18070   0.43549   0.54572   0.00000  Uiso   1.00
Pt2250 Pt    0.81934   0.43549   0.54572   0.00000  Uiso   1.00
Pt2251 Pt    0.45440   0.43549   0.81942   0.00000  Uiso   1.00
Pt2252 Pt    0.36317   0.30646   0.72819   0.00000  Uiso   1.00
Pt2253 Pt    0.81934   0.56451   0.54572   0.00000  Uiso   1.00
Pt2254 Pt    0.18070   0.43549   0.45449   0.00000  Uiso   1.00
Pt2255 Pt    0.45440   0.17743   0.45449   0.00000  Uiso   1.00
Pt2256 Pt    0.54563   0.56451   0.81942   0.00000  Uiso   1.00
Pt2257 Pt    0.45440   0.17743   0.54572   0.00000  Uiso   1.00
Pt2258 Pt    0.72811   0.43549   0.72819   0.00000  Uiso   1.00
Pt2259 Pt    0.54563   0.43549   0.81942   0.00000  Uiso   1.00
Pt2260 Pt    0.59126   0.24195   0.68257   0.00000  Uiso   1.00
Pt2261 Pt    0.63687   0.30646   0.72819   0.00000  Uiso   1.00
Pt2262 Pt    0.54563   0.17743   0.45449   0.00000  Uiso   1.00
Pt2263 Pt    0.72810   0.30646   0.63696   0.00000  Uiso   1.00
Pt2264 Pt    0.68249   0.24195   0.59134   0.00000  Uiso   1.00
Pt2265 Pt    0.54563   0.17743   0.54572   0.00000  Uiso   1.00
Pt2266 Pt    0.72811   0.56451   0.72819   0.00000  Uiso   1.00
Pt2267 Pt    0.77373   0.50000   0.68258   0.00000  Uiso   1.00
Pt2268 Pt    0.70530   0.33872   0.29482   0.00000  Uiso   1.00
Pt2269 Pt    0.61406   0.20969   0.38606   0.00000  Uiso   1.00
Pt2270 Pt    0.61406   0.20969   0.61414   0.00000  Uiso   1.00
Pt2271 Pt    0.70530   0.33872   0.70538   0.00000  Uiso   1.00
Pt2288 Pt    0.70530   0.66128   0.29482   0.00000  Uiso   1.00
Pt2289 Pt    0.38598   0.20969   0.61414   0.00000  Uiso   1.00
Pt2290 Pt    0.38598   0.20969   0.38606   0.00000  Uiso   1.00
Pt2291 Pt    0.70530   0.66128   0.70538   0.00000  Uiso   1.00
Pt2292 Pt    0.61406   0.79031   0.61414   0.00000  Uiso   1.00
Pt2293 Pt    0.61406   0.79031   0.38606   0.00000  Uiso   1.00
Pt2294 Pt    0.29474   0.33872   0.29482   0.00000  Uiso   1.00
Pt2295 Pt    0.29474   0.33872   0.70538   0.00000  Uiso   1.00
Pt2312 Pt    0.38598   0.79031   0.38606   0.00000  Uiso   1.00
Pt2313 Pt    0.38598   0.79031   0.61414   0.00000  Uiso   1.00
Pt2314 Pt    0.29474   0.66128   0.29482   0.00000  Uiso   1.00
Pt2315 Pt    0.29474   0.66128   0.70538   0.00000  Uiso   1.00
