data_con0.1_full_ontop
_audit_creation_date              2024-05-20
_audit_creation_method            'Materials Studio'
_symmetry_space_group_name_H-M    'P1'
_symmetry_Int_Tables_number       1
_symmetry_cell_setting            triclinic
loop_
_symmetry_equiv_pos_as_xyz
  x,y,z
_cell_length_a                    30.0000
_cell_length_b                    30.0000
_cell_length_c                    30.0000
_cell_angle_alpha                 90.0000
_cell_angle_beta                  90.0000
_cell_angle_gamma                 90.0000
loop_
_atom_site_label
_atom_site_type_symbol
_atom_site_fract_x
_atom_site_fract_y
_atom_site_fract_z
_atom_site_U_iso_or_equiv
_atom_site_adp_type
_atom_site_occupancy
Ni1    Ni    0.50000   0.50000   0.50000   0.00000  Uiso   1.00
Ni2    Ni    0.56424   0.50000   0.56424   0.00000  Uiso   1.00
Ni3    Ni    0.56424   0.50000   0.43576   0.00000  Uiso   1.00
Ni4    Ni    0.43576   0.50000   0.56424   0.00000  Uiso   1.00
Ni5    Ni    0.43576   0.50000   0.43576   0.00000  Uiso   1.00
Ni6    Ni    0.50000   0.38108   0.50000   0.00000  Uiso   1.00
Ni7    Ni    0.50000   0.61892   0.50000   0.00000  Uiso   1.00
Ni8    Ni    0.37151   0.50000   0.50000   0.00000  Uiso   1.00
Ni9    Ni    0.50000   0.50000   0.37151   0.00000  Uiso   1.00
Ni10   Ni    0.62849   0.50000   0.50000   0.00000  Uiso   1.00
Ni11   Ni    0.50000   0.50000   0.62849   0.00000  Uiso   1.00
Ni12   Ni    0.56424   0.38108   0.56424   0.00000  Uiso   1.00
Ni13   Ni    0.56424   0.61892   0.56424   0.00000  Uiso   1.00
Ni14   Ni    0.56424   0.38108   0.43576   0.00000  Uiso   1.00
Ni15   Ni    0.43576   0.38108   0.56424   0.00000  Uiso   1.00
Ni16   Ni    0.56424   0.61892   0.43576   0.00000  Uiso   1.00
Ni17   Ni    0.43576   0.61892   0.56424   0.00000  Uiso   1.00
Ni18   Ni    0.43576   0.38108   0.43576   0.00000  Uiso   1.00
Ni19   Ni    0.43576   0.61892   0.43576   0.00000  Uiso   1.00
Ni20   Ni    0.62849   0.38108   0.50000   0.00000  Uiso   1.00
Ni21   Ni    0.37151   0.38108   0.50000   0.00000  Uiso   1.00
Ni22   Ni    0.50000   0.38108   0.37151   0.00000  Uiso   1.00
Ni23   Ni    0.37151   0.61892   0.50000   0.00000  Uiso   1.00
Ni24   Ni    0.50000   0.61892   0.37151   0.00000  Uiso   1.00
Ni25   Ni    0.62849   0.61892   0.50000   0.00000  Uiso   1.00
Ni26   Ni    0.50000   0.61892   0.62849   0.00000  Uiso   1.00
Ni27   Ni    0.50000   0.38108   0.62849   0.00000  Uiso   1.00
Ni28   Ni    0.37151   0.50000   0.37151   0.00000  Uiso   1.00
Ni29   Ni    0.62849   0.50000   0.37151   0.00000  Uiso   1.00
Ni30   Ni    0.62849   0.50000   0.62849   0.00000  Uiso   1.00
Ni31   Ni    0.37151   0.50000   0.62849   0.00000  Uiso   1.00
Ni32   Ni    0.69273   0.50000   0.56424   0.00000  Uiso   1.00
Ni33   Ni    0.56424   0.50000   0.69273   0.00000  Uiso   1.00
Ni34   Ni    0.43576   0.50000   0.69273   0.00000  Uiso   1.00
Ni35   Ni    0.69273   0.50000   0.43576   0.00000  Uiso   1.00
Ni36   Ni    0.30727   0.50000   0.56424   0.00000  Uiso   1.00
Ni37   Ni    0.56424   0.50000   0.30727   0.00000  Uiso   1.00
Ni38   Ni    0.30727   0.50000   0.43576   0.00000  Uiso   1.00
Ni39   Ni    0.43576   0.50000   0.30727   0.00000  Uiso   1.00
Ni40   Ni    0.62849   0.38108   0.37151   0.00000  Uiso   1.00
Ni41   Ni    0.37151   0.38108   0.37151   0.00000  Uiso   1.00
Ni42   Ni    0.62849   0.38108   0.62849   0.00000  Uiso   1.00
Ni43   Ni    0.37151   0.61892   0.37151   0.00000  Uiso   1.00
Ni44   Ni    0.37151   0.61892   0.62849   0.00000  Uiso   1.00
Ni45   Ni    0.62849   0.61892   0.37151   0.00000  Uiso   1.00
Ni46   Ni    0.62849   0.61892   0.62849   0.00000  Uiso   1.00
Ni47   Ni    0.37151   0.38108   0.62849   0.00000  Uiso   1.00
Ni48   Ni    0.69273   0.38108   0.56424   0.00000  Uiso   1.00
Ni49   Ni    0.56424   0.38108   0.69273   0.00000  Uiso   1.00
Ni50   Ni    0.69273   0.61892   0.56424   0.00000  Uiso   1.00
Ni51   Ni    0.56424   0.61892   0.69273   0.00000  Uiso   1.00
Ni52   Ni    0.69273   0.38108   0.43576   0.00000  Uiso   1.00
Ni53   Ni    0.69273   0.61892   0.43576   0.00000  Uiso   1.00
Ni54   Ni    0.43576   0.61892   0.69273   0.00000  Uiso   1.00
Ni55   Ni    0.43576   0.38108   0.69273   0.00000  Uiso   1.00
Ni56   Ni    0.30727   0.38108   0.56424   0.00000  Uiso   1.00
Ni57   Ni    0.56424   0.38108   0.30727   0.00000  Uiso   1.00
Ni58   Ni    0.56424   0.61892   0.30727   0.00000  Uiso   1.00
Ni59   Ni    0.30727   0.61892   0.56424   0.00000  Uiso   1.00
Ni60   Ni    0.43576   0.38108   0.30727   0.00000  Uiso   1.00
Ni61   Ni    0.43576   0.61892   0.30727   0.00000  Uiso   1.00
Ni62   Ni    0.30727   0.61892   0.43576   0.00000  Uiso   1.00
Ni63   Ni    0.30727   0.38108   0.43576   0.00000  Uiso   1.00
Ni64   Ni    0.50000   0.26215   0.50000   0.00000  Uiso   1.00
Ni65   Ni    0.50000   0.73785   0.50000   0.00000  Uiso   1.00
Ni66   Ni    0.56424   0.26215   0.56424   0.00000  Uiso   1.00
Ni67   Ni    0.56424   0.73785   0.56424   0.00000  Uiso   1.00
Ni68   Ni    0.56424   0.26215   0.43576   0.00000  Uiso   1.00
Ni69   Ni    0.43576   0.26215   0.56424   0.00000  Uiso   1.00
Ni70   Ni    0.56424   0.73785   0.43576   0.00000  Uiso   1.00
Ni71   Ni    0.43576   0.73785   0.56424   0.00000  Uiso   1.00
Ni72   Ni    0.43576   0.73785   0.43576   0.00000  Uiso   1.00
Ni73   Ni    0.43576   0.26215   0.43576   0.00000  Uiso   1.00
Ni74   Ni    0.50000   0.50000   0.75698   0.00000  Uiso   1.00
Ni75   Ni    0.24302   0.50000   0.50000   0.00000  Uiso   1.00
Ni76   Ni    0.50000   0.50000   0.24302   0.00000  Uiso   1.00
Ni77   Ni    0.75698   0.50000   0.50000   0.00000  Uiso   1.00
Ni78   Ni    0.37151   0.73785   0.50000   0.00000  Uiso   1.00
Ni79   Ni    0.62849   0.26215   0.50000   0.00000  Uiso   1.00
Ni80   Ni    0.37151   0.26215   0.50000   0.00000  Uiso   1.00
Ni81   Ni    0.50000   0.26215   0.37151   0.00000  Uiso   1.00
Ni82   Ni    0.50000   0.73785   0.37151   0.00000  Uiso   1.00
Ni83   Ni    0.50000   0.73785   0.62849   0.00000  Uiso   1.00
Ni84   Ni    0.62849   0.73785   0.50000   0.00000  Uiso   1.00
Ni85   Ni    0.50000   0.26215   0.62849   0.00000  Uiso   1.00
Ni86   Ni    0.69273   0.50000   0.69273   0.00000  Uiso   1.00
Ni87   Ni    0.69273   0.50000   0.30727   0.00000  Uiso   1.00
Ni88   Ni    0.30727   0.50000   0.69273   0.00000  Uiso   1.00
Ni89   Ni    0.30727   0.50000   0.30727   0.00000  Uiso   1.00
Ni90   Ni    0.75698   0.38108   0.50000   0.00000  Uiso   1.00
Ni91   Ni    0.50000   0.61892   0.75698   0.00000  Uiso   1.00
Ni92   Ni    0.24302   0.61892   0.50000   0.00000  Uiso   1.00
Ni93   Ni    0.50000   0.38108   0.24302   0.00000  Uiso   1.00
Ni94   Ni    0.50000   0.61892   0.24302   0.00000  Uiso   1.00
Ni95   Ni    0.24302   0.38108   0.50000   0.00000  Uiso   1.00
Ni96   Ni    0.50000   0.38108   0.75698   0.00000  Uiso   1.00
Ni97   Ni    0.75698   0.61892   0.50000   0.00000  Uiso   1.00
Ni98   Ni    0.24302   0.50000   0.37151   0.00000  Uiso   1.00
Ni99   Ni    0.62849   0.50000   0.75698   0.00000  Uiso   1.00
Ni100  Ni    0.37151   0.50000   0.24302   0.00000  Uiso   1.00
Ni101  Ni    0.62849   0.50000   0.24302   0.00000  Uiso   1.00
Ni102  Ni    0.24302   0.50000   0.62849   0.00000  Uiso   1.00
Ni103  Ni    0.75698   0.50000   0.37151   0.00000  Uiso   1.00
Ni104  Ni    0.37151   0.50000   0.75698   0.00000  Uiso   1.00
Ni105  Ni    0.75698   0.50000   0.62849   0.00000  Uiso   1.00
Ni106  Ni    0.69273   0.38108   0.69273   0.00000  Uiso   1.00
Ni107  Ni    0.69273   0.61892   0.69273   0.00000  Uiso   1.00
Ni108  Ni    0.69273   0.38108   0.30727   0.00000  Uiso   1.00
Ni109  Ni    0.30727   0.38108   0.69273   0.00000  Uiso   1.00
Ni110  Ni    0.69273   0.61892   0.30727   0.00000  Uiso   1.00
Ni111  Ni    0.30727   0.61892   0.69273   0.00000  Uiso   1.00
Ni112  Ni    0.30727   0.38108   0.30727   0.00000  Uiso   1.00
Ni113  Ni    0.30727   0.61892   0.30727   0.00000  Uiso   1.00
Ni114  Ni    0.37151   0.73785   0.37151   0.00000  Uiso   1.00
Ni115  Ni    0.62849   0.26215   0.37151   0.00000  Uiso   1.00
Ni116  Ni    0.37151   0.26215   0.37151   0.00000  Uiso   1.00
Ni117  Ni    0.62849   0.73785   0.62849   0.00000  Uiso   1.00
Ni118  Ni    0.37151   0.73785   0.62849   0.00000  Uiso   1.00
Ni119  Ni    0.62849   0.73785   0.37151   0.00000  Uiso   1.00
Ni120  Ni    0.37151   0.26215   0.62849   0.00000  Uiso   1.00
Ni121  Ni    0.62849   0.26215   0.62849   0.00000  Uiso   1.00
Ni122  Ni    0.37151   0.61892   0.75698   0.00000  Uiso   1.00
Ni123  Ni    0.75698   0.38108   0.37151   0.00000  Uiso   1.00
Ni124  Ni    0.62849   0.38108   0.75698   0.00000  Uiso   1.00
Ni125  Ni    0.62849   0.38108   0.24302   0.00000  Uiso   1.00
Ni126  Ni    0.62849   0.61892   0.75698   0.00000  Uiso   1.00
Ni127  Ni    0.62849   0.61892   0.24302   0.00000  Uiso   1.00
Ni128  Ni    0.75698   0.38108   0.62849   0.00000  Uiso   1.00
Ni129  Ni    0.37151   0.61892   0.24302   0.00000  Uiso   1.00
Ni130  Ni    0.37151   0.38108   0.24302   0.00000  Uiso   1.00
Ni131  Ni    0.24302   0.61892   0.37151   0.00000  Uiso   1.00
Ni132  Ni    0.24302   0.38108   0.37151   0.00000  Uiso   1.00
Ni133  Ni    0.24302   0.38108   0.62849   0.00000  Uiso   1.00
Ni134  Ni    0.37151   0.38108   0.75698   0.00000  Uiso   1.00
Ni135  Ni    0.75698   0.61892   0.37151   0.00000  Uiso   1.00
Ni136  Ni    0.75698   0.61892   0.62849   0.00000  Uiso   1.00
Ni137  Ni    0.24302   0.61892   0.62849   0.00000  Uiso   1.00
Ni138  Ni    0.69273   0.26215   0.56424   0.00000  Uiso   1.00
Ni139  Ni    0.69273   0.73785   0.56424   0.00000  Uiso   1.00
Ni140  Ni    0.56424   0.26215   0.69273   0.00000  Uiso   1.00
Ni141  Ni    0.56424   0.73785   0.69273   0.00000  Uiso   1.00
Ni142  Ni    0.69273   0.26215   0.43576   0.00000  Uiso   1.00
Ni143  Ni    0.69273   0.73785   0.43576   0.00000  Uiso   1.00
Ni144  Ni    0.43576   0.26215   0.69273   0.00000  Uiso   1.00
Ni145  Ni    0.43576   0.73785   0.69273   0.00000  Uiso   1.00
Ni146  Ni    0.56424   0.26215   0.30727   0.00000  Uiso   1.00
Ni147  Ni    0.30727   0.26215   0.56424   0.00000  Uiso   1.00
Ni148  Ni    0.30727   0.73785   0.56424   0.00000  Uiso   1.00
Ni149  Ni    0.56424   0.73785   0.30727   0.00000  Uiso   1.00
Ni150  Ni    0.30727   0.73785   0.43576   0.00000  Uiso   1.00
Ni151  Ni    0.43576   0.73785   0.30727   0.00000  Uiso   1.00
Ni152  Ni    0.30727   0.26215   0.43576   0.00000  Uiso   1.00
Ni153  Ni    0.43576   0.26215   0.30727   0.00000  Uiso   1.00
Ni154  Ni    0.56424   0.50000   0.82122   0.00000  Uiso   1.00
Ni155  Ni    0.82122   0.50000   0.56424   0.00000  Uiso   1.00
Ni156  Ni    0.82122   0.50000   0.43576   0.00000  Uiso   1.00
Ni157  Ni    0.43576   0.50000   0.82122   0.00000  Uiso   1.00
Ni158  Ni    0.56424   0.50000   0.17878   0.00000  Uiso   1.00
Ni159  Ni    0.17878   0.50000   0.56424   0.00000  Uiso   1.00
Ni160  Ni    0.43576   0.50000   0.17878   0.00000  Uiso   1.00
Ni161  Ni    0.17878   0.50000   0.43576   0.00000  Uiso   1.00
Pt162  Pt    0.50000   0.44054   0.56424   0.00000  Uiso   1.00
Pt163  Pt    0.56424   0.44054   0.50000   0.00000  Uiso   1.00
Pt164  Pt    0.56424   0.55946   0.50000   0.00000  Uiso   1.00
Pt165  Pt    0.50000   0.55946   0.56424   0.00000  Uiso   1.00
Pt166  Pt    0.50000   0.44054   0.43576   0.00000  Uiso   1.00
Pt167  Pt    0.43576   0.44054   0.50000   0.00000  Uiso   1.00
Pt168  Pt    0.43576   0.55946   0.50000   0.00000  Uiso   1.00
Pt169  Pt    0.50000   0.55946   0.43576   0.00000  Uiso   1.00
Pt170  Pt    0.56424   0.44054   0.62849   0.00000  Uiso   1.00
Pt171  Pt    0.62849   0.44054   0.56424   0.00000  Uiso   1.00
Pt172  Pt    0.56424   0.55946   0.62849   0.00000  Uiso   1.00
Pt173  Pt    0.62849   0.55946   0.56424   0.00000  Uiso   1.00
Pt174  Pt    0.62849   0.44054   0.43576   0.00000  Uiso   1.00
Pt175  Pt    0.43576   0.44054   0.62849   0.00000  Uiso   1.00
Pt176  Pt    0.62849   0.55946   0.43576   0.00000  Uiso   1.00
Pt177  Pt    0.43576   0.55946   0.62849   0.00000  Uiso   1.00
Pt178  Pt    0.56424   0.44054   0.37151   0.00000  Uiso   1.00
Pt179  Pt    0.37151   0.44054   0.56424   0.00000  Uiso   1.00
Pt180  Pt    0.37151   0.55946   0.56424   0.00000  Uiso   1.00
Pt181  Pt    0.56424   0.55946   0.37151   0.00000  Uiso   1.00
Pt182  Pt    0.43576   0.44054   0.37151   0.00000  Uiso   1.00
Pt183  Pt    0.37151   0.44054   0.43576   0.00000  Uiso   1.00
Pt184  Pt    0.37151   0.55946   0.43576   0.00000  Uiso   1.00
Pt185  Pt    0.43576   0.55946   0.37151   0.00000  Uiso   1.00
Pt186  Pt    0.56424   0.32161   0.50000   0.00000  Uiso   1.00
Pt187  Pt    0.50000   0.32161   0.56424   0.00000  Uiso   1.00
Pt188  Pt    0.43576   0.32161   0.50000   0.00000  Uiso   1.00
Pt189  Pt    0.50000   0.32161   0.43576   0.00000  Uiso   1.00
Pt190  Pt    0.56424   0.67839   0.50000   0.00000  Uiso   1.00
Pt191  Pt    0.50000   0.67839   0.56424   0.00000  Uiso   1.00
Pt192  Pt    0.43576   0.67839   0.50000   0.00000  Uiso   1.00
Pt193  Pt    0.50000   0.67839   0.43576   0.00000  Uiso   1.00
Pt194  Pt    0.69273   0.44054   0.50000   0.00000  Uiso   1.00
Pt195  Pt    0.50000   0.44054   0.69273   0.00000  Uiso   1.00
Pt196  Pt    0.69273   0.55946   0.50000   0.00000  Uiso   1.00
Pt197  Pt    0.50000   0.55946   0.69273   0.00000  Uiso   1.00
Pt198  Pt    0.30727   0.44054   0.50000   0.00000  Uiso   1.00
Pt199  Pt    0.50000   0.44054   0.30727   0.00000  Uiso   1.00
Pt200  Pt    0.30727   0.55946   0.50000   0.00000  Uiso   1.00
Pt201  Pt    0.50000   0.55946   0.30727   0.00000  Uiso   1.00
Pt202  Pt    0.62849   0.32161   0.56424   0.00000  Uiso   1.00
Pt203  Pt    0.56424   0.32161   0.62849   0.00000  Uiso   1.00
Pt204  Pt    0.43576   0.32161   0.62849   0.00000  Uiso   1.00
Pt205  Pt    0.62849   0.32161   0.43576   0.00000  Uiso   1.00
Pt206  Pt    0.62849   0.67839   0.56424   0.00000  Uiso   1.00
Pt207  Pt    0.56424   0.67839   0.62849   0.00000  Uiso   1.00
Pt208  Pt    0.43576   0.67839   0.62849   0.00000  Uiso   1.00
Pt209  Pt    0.62849   0.67839   0.43576   0.00000  Uiso   1.00
Pt210  Pt    0.37151   0.32161   0.56424   0.00000  Uiso   1.00
Pt211  Pt    0.56424   0.32161   0.37151   0.00000  Uiso   1.00
Pt212  Pt    0.43576   0.32161   0.37151   0.00000  Uiso   1.00
Pt213  Pt    0.37151   0.32161   0.43576   0.00000  Uiso   1.00
Pt214  Pt    0.56424   0.67839   0.37151   0.00000  Uiso   1.00
Pt215  Pt    0.37151   0.67839   0.56424   0.00000  Uiso   1.00
Pt216  Pt    0.43576   0.67839   0.37151   0.00000  Uiso   1.00
Pt217  Pt    0.37151   0.67839   0.43576   0.00000  Uiso   1.00
Pt218  Pt    0.62849   0.44054   0.69273   0.00000  Uiso   1.00
Pt219  Pt    0.69273   0.44054   0.62849   0.00000  Uiso   1.00
Pt220  Pt    0.69273   0.55946   0.62849   0.00000  Uiso   1.00
Pt221  Pt    0.62849   0.55946   0.69273   0.00000  Uiso   1.00
Pt222  Pt    0.62849   0.44054   0.30727   0.00000  Uiso   1.00
Pt223  Pt    0.30727   0.44054   0.62849   0.00000  Uiso   1.00
Pt224  Pt    0.62849   0.55946   0.30727   0.00000  Uiso   1.00
Pt225  Pt    0.30727   0.55946   0.62849   0.00000  Uiso   1.00
Pt226  Pt    0.69273   0.44054   0.37151   0.00000  Uiso   1.00
Pt227  Pt    0.37151   0.44054   0.69273   0.00000  Uiso   1.00
Pt228  Pt    0.69273   0.55946   0.37151   0.00000  Uiso   1.00
Pt229  Pt    0.37151   0.55946   0.69273   0.00000  Uiso   1.00
Pt230  Pt    0.30727   0.44054   0.37151   0.00000  Uiso   1.00
Pt231  Pt    0.37151   0.44054   0.30727   0.00000  Uiso   1.00
Pt232  Pt    0.37151   0.55946   0.30727   0.00000  Uiso   1.00
Pt233  Pt    0.30727   0.55946   0.37151   0.00000  Uiso   1.00
Pt234  Pt    0.69273   0.32161   0.50000   0.00000  Uiso   1.00
Pt235  Pt    0.50000   0.32161   0.69273   0.00000  Uiso   1.00
Pt236  Pt    0.69273   0.67839   0.50000   0.00000  Uiso   1.00
Pt237  Pt    0.50000   0.67839   0.69273   0.00000  Uiso   1.00
Pt238  Pt    0.50000   0.32161   0.30727   0.00000  Uiso   1.00
Pt239  Pt    0.30727   0.32161   0.50000   0.00000  Uiso   1.00
Pt240  Pt    0.50000   0.67839   0.30727   0.00000  Uiso   1.00
Pt241  Pt    0.30727   0.67839   0.50000   0.00000  Uiso   1.00
Pt242  Pt    0.75698   0.44054   0.56424   0.00000  Uiso   1.00
Pt243  Pt    0.56424   0.44054   0.75698   0.00000  Uiso   1.00
Pt244  Pt    0.56424   0.55946   0.75698   0.00000  Uiso   1.00
Pt245  Pt    0.75698   0.55946   0.56424   0.00000  Uiso   1.00
Pt246  Pt    0.75698   0.44054   0.43576   0.00000  Uiso   1.00
Pt247  Pt    0.43576   0.44054   0.75698   0.00000  Uiso   1.00
Pt248  Pt    0.43576   0.55946   0.75698   0.00000  Uiso   1.00
Pt249  Pt    0.75698   0.55946   0.43576   0.00000  Uiso   1.00
Pt250  Pt    0.24302   0.44054   0.56424   0.00000  Uiso   1.00
Pt251  Pt    0.56424   0.44054   0.24302   0.00000  Uiso   1.00
Pt252  Pt    0.24302   0.55946   0.56424   0.00000  Uiso   1.00
Pt253  Pt    0.56424   0.55946   0.24302   0.00000  Uiso   1.00
Pt254  Pt    0.43576   0.44054   0.24302   0.00000  Uiso   1.00
Pt255  Pt    0.24302   0.44054   0.43576   0.00000  Uiso   1.00
Pt256  Pt    0.24302   0.55946   0.43576   0.00000  Uiso   1.00
Pt257  Pt    0.43576   0.55946   0.24302   0.00000  Uiso   1.00
Pt258  Pt    0.69273   0.32161   0.62849   0.00000  Uiso   1.00
Pt259  Pt    0.62849   0.32161   0.69273   0.00000  Uiso   1.00
Pt260  Pt    0.62849   0.67839   0.69273   0.00000  Uiso   1.00
Pt261  Pt    0.69273   0.67839   0.62849   0.00000  Uiso   1.00
Pt262  Pt    0.30727   0.32161   0.62849   0.00000  Uiso   1.00
Pt263  Pt    0.62849   0.32161   0.30727   0.00000  Uiso   1.00
Pt264  Pt    0.69273   0.32161   0.37151   0.00000  Uiso   1.00
Pt265  Pt    0.37151   0.32161   0.69273   0.00000  Uiso   1.00
Pt266  Pt    0.62849   0.67839   0.30727   0.00000  Uiso   1.00
Pt267  Pt    0.30727   0.67839   0.62849   0.00000  Uiso   1.00
Pt268  Pt    0.69273   0.67839   0.37151   0.00000  Uiso   1.00
Pt269  Pt    0.37151   0.67839   0.69273   0.00000  Uiso   1.00
Pt270  Pt    0.30727   0.32161   0.37151   0.00000  Uiso   1.00
Pt271  Pt    0.37151   0.32161   0.30727   0.00000  Uiso   1.00
Pt272  Pt    0.37151   0.67839   0.30727   0.00000  Uiso   1.00
Pt273  Pt    0.30727   0.67839   0.37151   0.00000  Uiso   1.00
Pt274  Pt    0.56424   0.20269   0.50000   0.00000  Uiso   1.00
Pt275  Pt    0.50000   0.20269   0.56424   0.00000  Uiso   1.00
Pt276  Pt    0.43576   0.20269   0.50000   0.00000  Uiso   1.00
Pt277  Pt    0.50000   0.20269   0.43576   0.00000  Uiso   1.00
Pt278  Pt    0.50000   0.79731   0.56424   0.00000  Uiso   1.00
Pt279  Pt    0.56424   0.79731   0.50000   0.00000  Uiso   1.00
Pt280  Pt    0.43576   0.79731   0.50000   0.00000  Uiso   1.00
Pt281  Pt    0.50000   0.79731   0.43576   0.00000  Uiso   1.00
Pt282  Pt    0.75698   0.32161   0.56424   0.00000  Uiso   1.00
Pt283  Pt    0.56424   0.32161   0.75698   0.00000  Uiso   1.00
Pt284  Pt    0.75698   0.32161   0.43576   0.00000  Uiso   1.00
Pt285  Pt    0.43576   0.32161   0.75698   0.00000  Uiso   1.00
Pt286  Pt    0.56424   0.67839   0.75698   0.00000  Uiso   1.00
Pt287  Pt    0.75698   0.67839   0.56424   0.00000  Uiso   1.00
Pt288  Pt    0.75698   0.67839   0.43576   0.00000  Uiso   1.00
Pt289  Pt    0.43576   0.67839   0.75698   0.00000  Uiso   1.00
Pt290  Pt    0.24302   0.32161   0.56424   0.00000  Uiso   1.00
Pt291  Pt    0.56424   0.32161   0.24302   0.00000  Uiso   1.00
Pt292  Pt    0.43576   0.32161   0.24302   0.00000  Uiso   1.00
Pt293  Pt    0.24302   0.32161   0.43576   0.00000  Uiso   1.00
Pt294  Pt    0.56424   0.67839   0.24302   0.00000  Uiso   1.00
Pt295  Pt    0.24302   0.67839   0.56424   0.00000  Uiso   1.00
Pt296  Pt    0.24302   0.67839   0.43576   0.00000  Uiso   1.00
Pt297  Pt    0.43576   0.67839   0.24302   0.00000  Uiso   1.00
Pt298  Pt    0.69273   0.44054   0.75698   0.00000  Uiso   1.00
Pt299  Pt    0.75698   0.44054   0.69273   0.00000  Uiso   1.00
Pt300  Pt    0.75698   0.55946   0.69273   0.00000  Uiso   1.00
Pt301  Pt    0.69273   0.55946   0.75698   0.00000  Uiso   1.00
Pt302  Pt    0.82122   0.44054   0.50000   0.00000  Uiso   1.00
Pt303  Pt    0.50000   0.44054   0.82122   0.00000  Uiso   1.00
Pt304  Pt    0.75698   0.44054   0.30727   0.00000  Uiso   1.00
Pt305  Pt    0.30727   0.44054   0.75698   0.00000  Uiso   1.00
Pt306  Pt    0.82122   0.55946   0.50000   0.00000  Uiso   1.00
Pt307  Pt    0.50000   0.55946   0.82122   0.00000  Uiso   1.00
Pt308  Pt    0.75698   0.55946   0.30727   0.00000  Uiso   1.00
Pt309  Pt    0.30727   0.55946   0.75698   0.00000  Uiso   1.00
Pt310  Pt    0.50000   0.44054   0.17878   0.00000  Uiso   1.00
Pt311  Pt    0.24302   0.44054   0.69273   0.00000  Uiso   1.00
Pt312  Pt    0.17878   0.44054   0.50000   0.00000  Uiso   1.00
Pt313  Pt    0.69273   0.44054   0.24302   0.00000  Uiso   1.00
Pt314  Pt    0.69273   0.55946   0.24302   0.00000  Uiso   1.00
Pt315  Pt    0.17878   0.55946   0.50000   0.00000  Uiso   1.00
Pt316  Pt    0.24302   0.55946   0.69273   0.00000  Uiso   1.00
Pt317  Pt    0.50000   0.55946   0.17878   0.00000  Uiso   1.00
Pt318  Pt    0.30727   0.44054   0.24302   0.00000  Uiso   1.00
Pt319  Pt    0.24302   0.44054   0.30727   0.00000  Uiso   1.00
Pt320  Pt    0.24302   0.55946   0.30727   0.00000  Uiso   1.00
Pt321  Pt    0.30727   0.55946   0.24302   0.00000  Uiso   1.00
Pt322  Pt    0.56424   0.20269   0.62849   0.00000  Uiso   1.00
Pt323  Pt    0.62849   0.20269   0.56424   0.00000  Uiso   1.00
Pt324  Pt    0.62849   0.20269   0.43576   0.00000  Uiso   1.00
Pt325  Pt    0.43576   0.20269   0.62849   0.00000  Uiso   1.00
Pt326  Pt    0.37151   0.20269   0.56424   0.00000  Uiso   1.00
Pt327  Pt    0.56424   0.20269   0.37151   0.00000  Uiso   1.00
Pt328  Pt    0.56424   0.79731   0.62849   0.00000  Uiso   1.00
Pt329  Pt    0.62849   0.79731   0.56424   0.00000  Uiso   1.00
Pt330  Pt    0.43576   0.20269   0.37151   0.00000  Uiso   1.00
Pt331  Pt    0.37151   0.20269   0.43576   0.00000  Uiso   1.00
Pt332  Pt    0.43576   0.79731   0.62849   0.00000  Uiso   1.00
Pt333  Pt    0.62849   0.79731   0.43576   0.00000  Uiso   1.00
Pt334  Pt    0.37151   0.79731   0.56424   0.00000  Uiso   1.00
Pt335  Pt    0.56424   0.79731   0.37151   0.00000  Uiso   1.00
Pt336  Pt    0.43576   0.79731   0.37151   0.00000  Uiso   1.00
Pt337  Pt    0.37151   0.79731   0.43576   0.00000  Uiso   1.00
loop_
_geom_bond_atom_site_label_1
_geom_bond_atom_site_label_2
_geom_bond_distance
_geom_bond_site_symmetry_2
_ccdc_geom_bond_type
Ni1    Ni2     2.725   .     S
Ni1    Ni3     2.725   .     S
Ni1    Ni4     2.725   .     S
Ni1    Ni5     2.725   .     S
Ni1    Pt162   2.626   .     S
Ni1    Pt163   2.626   .     S
Ni1    Pt164   2.626   .     S
Ni1    Pt165   2.626   .     S
Ni1    Pt166   2.626   .     S
Ni1    Pt167   2.626   .     S
Ni1    Pt168   2.626   .     S
Ni1    Pt169   2.626   .     S
Ni2    Ni10    2.726   .     S
Ni2    Ni11    2.726   .     S
Ni2    Ni30    2.726   .     S
Ni2    Pt162   2.626   .     S
Ni2    Pt163   2.626   .     S
Ni2    Pt164   2.626   .     S
Ni2    Pt165   2.626   .     S
Ni2    Pt170   2.626   .     S
Ni2    Pt171   2.626   .     S
Ni2    Pt172   2.626   .     S
Ni2    Pt173   2.626   .     S
Ni3    Ni9     2.726   .     S
Ni3    Ni10    2.726   .     S
Ni3    Ni29    2.726   .     S
Ni3    Pt163   2.626   .     S
Ni3    Pt164   2.626   .     S
Ni3    Pt166   2.626   .     S
Ni3    Pt169   2.626   .     S
Ni3    Pt174   2.626   .     S
Ni3    Pt176   2.626   .     S
Ni3    Pt178   2.626   .     S
Ni3    Pt181   2.626   .     S
Ni4    Ni8     2.726   .     S
Ni4    Ni11    2.726   .     S
Ni4    Ni31    2.726   .     S
Ni4    Pt162   2.626   .     S
Ni4    Pt165   2.626   .     S
Ni4    Pt167   2.626   .     S
Ni4    Pt168   2.626   .     S
Ni4    Pt175   2.626   .     S
Ni4    Pt177   2.626   .     S
Ni4    Pt179   2.626   .     S
Ni4    Pt180   2.626   .     S
Ni5    Ni8     2.726   .     S
Ni5    Ni9     2.726   .     S
Ni5    Ni28    2.726   .     S
Ni5    Pt166   2.626   .     S
Ni5    Pt167   2.626   .     S
Ni5    Pt168   2.626   .     S
Ni5    Pt169   2.626   .     S
Ni5    Pt182   2.626   .     S
Ni5    Pt183   2.626   .     S
Ni5    Pt184   2.626   .     S
Ni5    Pt185   2.626   .     S
Ni6    Ni12    2.725   .     S
Ni6    Ni14    2.725   .     S
Ni6    Ni15    2.725   .     S
Ni6    Ni18    2.725   .     S
Ni6    Pt162   2.626   .     S
Ni6    Pt163   2.626   .     S
Ni6    Pt166   2.626   .     S
Ni6    Pt167   2.626   .     S
Ni6    Pt186   2.626   .     S
Ni6    Pt187   2.626   .     S
Ni6    Pt188   2.626   .     S
Ni6    Pt189   2.626   .     S
Ni7    Ni13    2.725   .     S
Ni7    Ni16    2.725   .     S
Ni7    Ni17    2.725   .     S
Ni7    Ni19    2.725   .     S
Ni7    Pt164   2.626   .     S
Ni7    Pt165   2.626   .     S
Ni7    Pt168   2.626   .     S
Ni7    Pt169   2.626   .     S
Ni7    Pt190   2.626   .     S
Ni7    Pt191   2.626   .     S
Ni7    Pt192   2.626   .     S
Ni7    Pt193   2.626   .     S
Ni8    Ni36    2.725   .     S
Ni8    Ni38    2.725   .     S
Ni8    Pt167   2.626   .     S
Ni8    Pt168   2.626   .     S
Ni8    Pt179   2.626   .     S
Ni8    Pt180   2.626   .     S
Ni8    Pt183   2.626   .     S
Ni8    Pt184   2.626   .     S
Ni8    Pt198   2.626   .     S
Ni8    Pt200   2.626   .     S
Ni9    Ni37    2.725   .     S
Ni9    Ni39    2.725   .     S
Ni9    Pt166   2.626   .     S
Ni9    Pt169   2.626   .     S
Ni9    Pt178   2.626   .     S
Ni9    Pt181   2.626   .     S
Ni9    Pt182   2.626   .     S
Ni9    Pt185   2.626   .     S
Ni9    Pt199   2.626   .     S
Ni9    Pt201   2.626   .     S
Ni10   Ni32    2.725   .     S
Ni10   Ni35    2.725   .     S
Ni10   Pt163   2.626   .     S
Ni10   Pt164   2.626   .     S
Ni10   Pt171   2.626   .     S
Ni10   Pt173   2.626   .     S
Ni10   Pt174   2.626   .     S
Ni10   Pt176   2.626   .     S
Ni10   Pt194   2.626   .     S
Ni10   Pt196   2.626   .     S
Ni11   Ni33    2.725   .     S
Ni11   Ni34    2.725   .     S
Ni11   Pt162   2.626   .     S
Ni11   Pt165   2.626   .     S
Ni11   Pt170   2.626   .     S
Ni11   Pt172   2.626   .     S
Ni11   Pt175   2.626   .     S
Ni11   Pt177   2.626   .     S
Ni11   Pt195   2.626   .     S
Ni11   Pt197   2.626   .     S
Ni12   Ni20    2.726   .     S
Ni12   Ni27    2.726   .     S
Ni12   Ni42    2.726   .     S
Ni12   Pt162   2.626   .     S
Ni12   Pt163   2.626   .     S
Ni12   Pt170   2.626   .     S
Ni12   Pt171   2.626   .     S
Ni12   Pt186   2.626   .     S
Ni12   Pt187   2.626   .     S
Ni12   Pt202   2.626   .     S
Ni12   Pt203   2.626   .     S
Ni13   Ni25    2.726   .     S
Ni13   Ni26    2.726   .     S
Ni13   Ni46    2.726   .     S
Ni13   Pt164   2.626   .     S
Ni13   Pt165   2.626   .     S
Ni13   Pt172   2.626   .     S
Ni13   Pt173   2.626   .     S
Ni13   Pt190   2.626   .     S
Ni13   Pt191   2.626   .     S
Ni13   Pt206   2.626   .     S
Ni13   Pt207   2.626   .     S
Ni14   Ni20    2.726   .     S
Ni14   Ni22    2.726   .     S
Ni14   Ni40    2.726   .     S
Ni14   Pt163   2.626   .     S
Ni14   Pt166   2.626   .     S
Ni14   Pt174   2.626   .     S
Ni14   Pt178   2.626   .     S
Ni14   Pt186   2.626   .     S
Ni14   Pt189   2.626   .     S
Ni14   Pt205   2.626   .     S
Ni14   Pt211   2.626   .     S
Ni15   Ni21    2.726   .     S
Ni15   Ni27    2.726   .     S
Ni15   Ni47    2.726   .     S
Ni15   Pt162   2.626   .     S
Ni15   Pt167   2.626   .     S
Ni15   Pt175   2.626   .     S
Ni15   Pt179   2.626   .     S
Ni15   Pt187   2.626   .     S
Ni15   Pt188   2.626   .     S
Ni15   Pt204   2.626   .     S
Ni15   Pt210   2.626   .     S
Ni16   Ni24    2.726   .     S
Ni16   Ni25    2.726   .     S
Ni16   Ni45    2.726   .     S
Ni16   Pt164   2.626   .     S
Ni16   Pt169   2.626   .     S
Ni16   Pt176   2.626   .     S
Ni16   Pt181   2.626   .     S
Ni16   Pt190   2.626   .     S
Ni16   Pt193   2.626   .     S
Ni16   Pt209   2.626   .     S
Ni16   Pt214   2.626   .     S
Ni17   Ni23    2.726   .     S
Ni17   Ni26    2.726   .     S
Ni17   Ni44    2.726   .     S
Ni17   Pt165   2.626   .     S
Ni17   Pt168   2.626   .     S
Ni17   Pt177   2.626   .     S
Ni17   Pt180   2.626   .     S
Ni17   Pt191   2.626   .     S
Ni17   Pt192   2.626   .     S
Ni17   Pt208   2.626   .     S
Ni17   Pt215   2.626   .     S
Ni18   Ni21    2.726   .     S
Ni18   Ni22    2.726   .     S
Ni18   Ni41    2.726   .     S
Ni18   Pt166   2.626   .     S
Ni18   Pt167   2.626   .     S
Ni18   Pt182   2.626   .     S
Ni18   Pt183   2.626   .     S
Ni18   Pt188   2.626   .     S
Ni18   Pt189   2.626   .     S
Ni18   Pt212   2.626   .     S
Ni18   Pt213   2.626   .     S
Ni19   Ni23    2.726   .     S
Ni19   Ni24    2.726   .     S
Ni19   Ni43    2.726   .     S
Ni19   Pt168   2.626   .     S
Ni19   Pt169   2.626   .     S
Ni19   Pt184   2.626   .     S
Ni19   Pt185   2.626   .     S
Ni19   Pt192   2.626   .     S
Ni19   Pt193   2.626   .     S
Ni19   Pt216   2.626   .     S
Ni19   Pt217   2.626   .     S
Ni20   Ni48    2.725   .     S
Ni20   Ni52    2.725   .     S
Ni20   Pt163   2.626   .     S
Ni20   Pt171   2.626   .     S
Ni20   Pt174   2.626   .     S
Ni20   Pt186   2.626   .     S
Ni20   Pt194   2.626   .     S
Ni20   Pt202   2.626   .     S
Ni20   Pt205   2.626   .     S
Ni20   Pt234   2.626   .     S
Ni21   Ni56    2.725   .     S
Ni21   Ni63    2.725   .     S
Ni21   Pt167   2.626   .     S
Ni21   Pt179   2.626   .     S
Ni21   Pt183   2.626   .     S
Ni21   Pt188   2.626   .     S
Ni21   Pt198   2.626   .     S
Ni21   Pt210   2.626   .     S
Ni21   Pt213   2.626   .     S
Ni21   Pt239   2.626   .     S
Ni22   Ni57    2.725   .     S
Ni22   Ni60    2.725   .     S
Ni22   Pt166   2.626   .     S
Ni22   Pt178   2.626   .     S
Ni22   Pt182   2.626   .     S
Ni22   Pt189   2.626   .     S
Ni22   Pt199   2.626   .     S
Ni22   Pt211   2.626   .     S
Ni22   Pt212   2.626   .     S
Ni22   Pt238   2.626   .     S
Ni23   Ni59    2.725   .     S
Ni23   Ni62    2.725   .     S
Ni23   Pt168   2.626   .     S
Ni23   Pt180   2.626   .     S
Ni23   Pt184   2.626   .     S
Ni23   Pt192   2.626   .     S
Ni23   Pt200   2.626   .     S
Ni23   Pt215   2.626   .     S
Ni23   Pt217   2.626   .     S
Ni23   Pt241   2.626   .     S
Ni24   Ni58    2.725   .     S
Ni24   Ni61    2.725   .     S
Ni24   Pt169   2.626   .     S
Ni24   Pt181   2.626   .     S
Ni24   Pt185   2.626   .     S
Ni24   Pt193   2.626   .     S
Ni24   Pt201   2.626   .     S
Ni24   Pt214   2.626   .     S
Ni24   Pt216   2.626   .     S
Ni24   Pt240   2.626   .     S
Ni25   Ni50    2.725   .     S
Ni25   Ni53    2.725   .     S
Ni25   Pt164   2.626   .     S
Ni25   Pt173   2.626   .     S
Ni25   Pt176   2.626   .     S
Ni25   Pt190   2.626   .     S
Ni25   Pt196   2.626   .     S
Ni25   Pt206   2.626   .     S
Ni25   Pt209   2.626   .     S
Ni25   Pt236   2.626   .     S
Ni26   Ni51    2.725   .     S
Ni26   Ni54    2.725   .     S
Ni26   Pt165   2.626   .     S
Ni26   Pt172   2.626   .     S
Ni26   Pt177   2.626   .     S
Ni26   Pt191   2.626   .     S
Ni26   Pt197   2.626   .     S
Ni26   Pt207   2.626   .     S
Ni26   Pt208   2.626   .     S
Ni26   Pt237   2.626   .     S
Ni27   Ni49    2.725   .     S
Ni27   Ni55    2.725   .     S
Ni27   Pt162   2.626   .     S
Ni27   Pt170   2.626   .     S
Ni27   Pt175   2.626   .     S
Ni27   Pt187   2.626   .     S
Ni27   Pt195   2.626   .     S
Ni27   Pt203   2.626   .     S
Ni27   Pt204   2.626   .     S
Ni27   Pt235   2.626   .     S
Ni28   Ni38    2.726   .     S
Ni28   Ni39    2.726   .     S
Ni28   Ni89    2.725   .     S
Ni28   Pt182   2.626   .     S
Ni28   Pt183   2.626   .     S
Ni28   Pt184   2.626   .     S
Ni28   Pt185   2.626   .     S
Ni28   Pt230   2.626   .     S
Ni28   Pt231   2.626   .     S
Ni28   Pt232   2.626   .     S
Ni28   Pt233   2.626   .     S
Ni29   Ni35    2.726   .     S
Ni29   Ni37    2.726   .     S
Ni29   Ni87    2.725   .     S
Ni29   Pt174   2.626   .     S
Ni29   Pt176   2.626   .     S
Ni29   Pt178   2.626   .     S
Ni29   Pt181   2.626   .     S
Ni29   Pt222   2.626   .     S
Ni29   Pt224   2.626   .     S
Ni29   Pt226   2.626   .     S
Ni29   Pt228   2.626   .     S
Ni30   Ni32    2.726   .     S
Ni30   Ni33    2.726   .     S
Ni30   Ni86    2.725   .     S
Ni30   Pt170   2.626   .     S
Ni30   Pt171   2.626   .     S
Ni30   Pt172   2.626   .     S
Ni30   Pt173   2.626   .     S
Ni30   Pt218   2.626   .     S
Ni30   Pt219   2.626   .     S
Ni30   Pt220   2.626   .     S
Ni30   Pt221   2.626   .     S
Ni31   Ni34    2.726   .     S
Ni31   Ni36    2.726   .     S
Ni31   Ni88    2.725   .     S
Ni31   Pt175   2.626   .     S
Ni31   Pt177   2.626   .     S
Ni31   Pt179   2.626   .     S
Ni31   Pt180   2.626   .     S
Ni31   Pt223   2.626   .     S
Ni31   Pt225   2.626   .     S
Ni31   Pt227   2.626   .     S
Ni31   Pt229   2.626   .     S
Ni32   Ni77    2.726   .     S
Ni32   Ni105   2.726   .     S
Ni32   Pt171   2.626   .     S
Ni32   Pt173   2.626   .     S
Ni32   Pt194   2.626   .     S
Ni32   Pt196   2.626   .     S
Ni32   Pt219   2.626   .     S
Ni32   Pt220   2.626   .     S
Ni32   Pt242   2.626   .     S
Ni32   Pt245   2.626   .     S
Ni33   Ni74    2.726   .     S
Ni33   Ni99    2.726   .     S
Ni33   Pt170   2.626   .     S
Ni33   Pt172   2.626   .     S
Ni33   Pt195   2.626   .     S
Ni33   Pt197   2.626   .     S
Ni33   Pt218   2.626   .     S
Ni33   Pt221   2.626   .     S
Ni33   Pt243   2.626   .     S
Ni33   Pt244   2.626   .     S
Ni34   Ni74    2.726   .     S
Ni34   Ni104   2.726   .     S
Ni34   Pt175   2.626   .     S
Ni34   Pt177   2.626   .     S
Ni34   Pt195   2.626   .     S
Ni34   Pt197   2.626   .     S
Ni34   Pt227   2.626   .     S
Ni34   Pt229   2.626   .     S
Ni34   Pt247   2.626   .     S
Ni34   Pt248   2.626   .     S
Ni35   Ni77    2.726   .     S
Ni35   Ni103   2.726   .     S
Ni35   Pt174   2.626   .     S
Ni35   Pt176   2.626   .     S
Ni35   Pt194   2.626   .     S
Ni35   Pt196   2.626   .     S
Ni35   Pt226   2.626   .     S
Ni35   Pt228   2.626   .     S
Ni35   Pt246   2.626   .     S
Ni35   Pt249   2.626   .     S
Ni36   Ni75    2.726   .     S
Ni36   Ni102   2.726   .     S
Ni36   Pt179   2.626   .     S
Ni36   Pt180   2.626   .     S
Ni36   Pt198   2.626   .     S
Ni36   Pt200   2.626   .     S
Ni36   Pt223   2.626   .     S
Ni36   Pt225   2.626   .     S
Ni36   Pt250   2.626   .     S
Ni36   Pt252   2.626   .     S
Ni37   Ni76    2.726   .     S
Ni37   Ni101   2.726   .     S
Ni37   Pt178   2.626   .     S
Ni37   Pt181   2.626   .     S
Ni37   Pt199   2.626   .     S
Ni37   Pt201   2.626   .     S
Ni37   Pt222   2.626   .     S
Ni37   Pt224   2.626   .     S
Ni37   Pt251   2.626   .     S
Ni37   Pt253   2.626   .     S
Ni38   Ni75    2.726   .     S
Ni38   Ni98    2.726   .     S
Ni38   Pt183   2.626   .     S
Ni38   Pt184   2.626   .     S
Ni38   Pt198   2.626   .     S
Ni38   Pt200   2.626   .     S
Ni38   Pt230   2.626   .     S
Ni38   Pt233   2.626   .     S
Ni38   Pt255   2.626   .     S
Ni38   Pt256   2.626   .     S
Ni39   Ni76    2.726   .     S
Ni39   Ni100   2.726   .     S
Ni39   Pt182   2.626   .     S
Ni39   Pt185   2.626   .     S
Ni39   Pt199   2.626   .     S
Ni39   Pt201   2.626   .     S
Ni39   Pt231   2.626   .     S
Ni39   Pt232   2.626   .     S
Ni39   Pt254   2.626   .     S
Ni39   Pt257   2.626   .     S
Ni40   Ni52    2.726   .     S
Ni40   Ni57    2.726   .     S
Ni40   Ni108   2.725   .     S
Ni40   Pt174   2.626   .     S
Ni40   Pt178   2.626   .     S
Ni40   Pt205   2.626   .     S
Ni40   Pt211   2.626   .     S
Ni40   Pt222   2.626   .     S
Ni40   Pt226   2.626   .     S
Ni40   Pt263   2.626   .     S
Ni40   Pt264   2.626   .     S
Ni41   Ni60    2.726   .     S
Ni41   Ni63    2.726   .     S
Ni41   Ni112   2.725   .     S
Ni41   Pt182   2.626   .     S
Ni41   Pt183   2.626   .     S
Ni41   Pt212   2.626   .     S
Ni41   Pt213   2.626   .     S
Ni41   Pt230   2.626   .     S
Ni41   Pt231   2.626   .     S
Ni41   Pt270   2.626   .     S
Ni41   Pt271   2.626   .     S
Ni42   Ni48    2.726   .     S
Ni42   Ni49    2.726   .     S
Ni42   Ni106   2.725   .     S
Ni42   Pt170   2.626   .     S
Ni42   Pt171   2.626   .     S
Ni42   Pt202   2.626   .     S
Ni42   Pt203   2.626   .     S
Ni42   Pt218   2.626   .     S
Ni42   Pt219   2.626   .     S
Ni42   Pt258   2.626   .     S
Ni42   Pt259   2.626   .     S
Ni43   Ni61    2.726   .     S
Ni43   Ni62    2.726   .     S
Ni43   Ni113   2.725   .     S
Ni43   Pt184   2.626   .     S
Ni43   Pt185   2.626   .     S
Ni43   Pt216   2.626   .     S
Ni43   Pt217   2.626   .     S
Ni43   Pt232   2.626   .     S
Ni43   Pt233   2.626   .     S
Ni43   Pt272   2.626   .     S
Ni43   Pt273   2.626   .     S
Ni44   Ni54    2.726   .     S
Ni44   Ni59    2.726   .     S
Ni44   Ni111   2.725   .     S
Ni44   Pt177   2.626   .     S
Ni44   Pt180   2.626   .     S
Ni44   Pt208   2.626   .     S
Ni44   Pt215   2.626   .     S
Ni44   Pt225   2.626   .     S
Ni44   Pt229   2.626   .     S
Ni44   Pt267   2.626   .     S
Ni44   Pt269   2.626   .     S
Ni45   Ni53    2.726   .     S
Ni45   Ni58    2.726   .     S
Ni45   Ni110   2.725   .     S
Ni45   Pt176   2.626   .     S
Ni45   Pt181   2.626   .     S
Ni45   Pt209   2.626   .     S
Ni45   Pt214   2.626   .     S
Ni45   Pt224   2.626   .     S
Ni45   Pt228   2.626   .     S
Ni45   Pt266   2.626   .     S
Ni45   Pt268   2.626   .     S
Ni46   Ni50    2.726   .     S
Ni46   Ni51    2.726   .     S
Ni46   Ni107   2.725   .     S
Ni46   Pt172   2.626   .     S
Ni46   Pt173   2.626   .     S
Ni46   Pt206   2.626   .     S
Ni46   Pt207   2.626   .     S
Ni46   Pt220   2.626   .     S
Ni46   Pt221   2.626   .     S
Ni46   Pt260   2.626   .     S
Ni46   Pt261   2.626   .     S
Ni47   Ni55    2.726   .     S
Ni47   Ni56    2.726   .     S
Ni47   Ni109   2.725   .     S
Ni47   Pt175   2.626   .     S
Ni47   Pt179   2.626   .     S
Ni47   Pt204   2.626   .     S
Ni47   Pt210   2.626   .     S
Ni47   Pt223   2.626   .     S
Ni47   Pt227   2.626   .     S
Ni47   Pt262   2.626   .     S
Ni47   Pt265   2.626   .     S
Ni48   Ni90    2.726   .     S
Ni48   Ni128   2.726   .     S
Ni48   Pt171   2.626   .     S
Ni48   Pt194   2.626   .     S
Ni48   Pt202   2.626   .     S
Ni48   Pt219   2.626   .     S
Ni48   Pt234   2.626   .     S
Ni48   Pt242   2.626   .     S
Ni48   Pt258   2.626   .     S
Ni48   Pt282   2.626   .     S
Ni49   Ni96    2.726   .     S
Ni49   Ni124   2.726   .     S
Ni49   Pt170   2.626   .     S
Ni49   Pt195   2.626   .     S
Ni49   Pt203   2.626   .     S
Ni49   Pt218   2.626   .     S
Ni49   Pt235   2.626   .     S
Ni49   Pt243   2.626   .     S
Ni49   Pt259   2.626   .     S
Ni49   Pt283   2.626   .     S
Ni50   Ni97    2.726   .     S
Ni50   Ni136   2.726   .     S
Ni50   Pt173   2.626   .     S
Ni50   Pt196   2.626   .     S
Ni50   Pt206   2.626   .     S
Ni50   Pt220   2.626   .     S
Ni50   Pt236   2.626   .     S
Ni50   Pt245   2.626   .     S
Ni50   Pt261   2.626   .     S
Ni50   Pt287   2.626   .     S
Ni51   Ni91    2.726   .     S
Ni51   Ni126   2.726   .     S
Ni51   Pt172   2.626   .     S
Ni51   Pt197   2.626   .     S
Ni51   Pt207   2.626   .     S
Ni51   Pt221   2.626   .     S
Ni51   Pt237   2.626   .     S
Ni51   Pt244   2.626   .     S
Ni51   Pt260   2.626   .     S
Ni51   Pt286   2.626   .     S
Ni52   Ni90    2.726   .     S
Ni52   Ni123   2.726   .     S
Ni52   Pt174   2.626   .     S
Ni52   Pt194   2.626   .     S
Ni52   Pt205   2.626   .     S
Ni52   Pt226   2.626   .     S
Ni52   Pt234   2.626   .     S
Ni52   Pt246   2.626   .     S
Ni52   Pt264   2.626   .     S
Ni52   Pt284   2.626   .     S
Ni53   Ni97    2.726   .     S
Ni53   Ni135   2.726   .     S
Ni53   Pt176   2.626   .     S
Ni53   Pt196   2.626   .     S
Ni53   Pt209   2.626   .     S
Ni53   Pt228   2.626   .     S
Ni53   Pt236   2.626   .     S
Ni53   Pt249   2.626   .     S
Ni53   Pt268   2.626   .     S
Ni53   Pt288   2.626   .     S
Ni54   Ni91    2.726   .     S
Ni54   Ni122   2.726   .     S
Ni54   Pt177   2.626   .     S
Ni54   Pt197   2.626   .     S
Ni54   Pt208   2.626   .     S
Ni54   Pt229   2.626   .     S
Ni54   Pt237   2.626   .     S
Ni54   Pt248   2.626   .     S
Ni54   Pt269   2.626   .     S
Ni54   Pt289   2.626   .     S
Ni55   Ni96    2.726   .     S
Ni55   Ni134   2.726   .     S
Ni55   Pt175   2.626   .     S
Ni55   Pt195   2.626   .     S
Ni55   Pt204   2.626   .     S
Ni55   Pt227   2.626   .     S
Ni55   Pt235   2.626   .     S
Ni55   Pt247   2.626   .     S
Ni55   Pt265   2.626   .     S
Ni55   Pt285   2.626   .     S
Ni56   Ni95    2.726   .     S
Ni56   Ni133   2.726   .     S
Ni56   Pt179   2.626   .     S
Ni56   Pt198   2.626   .     S
Ni56   Pt210   2.626   .     S
Ni56   Pt223   2.626   .     S
Ni56   Pt239   2.626   .     S
Ni56   Pt250   2.626   .     S
Ni56   Pt262   2.626   .     S
Ni56   Pt290   2.626   .     S
Ni57   Ni93    2.726   .     S
Ni57   Ni125   2.726   .     S
Ni57   Pt178   2.626   .     S
Ni57   Pt199   2.626   .     S
Ni57   Pt211   2.626   .     S
Ni57   Pt222   2.626   .     S
Ni57   Pt238   2.626   .     S
Ni57   Pt251   2.626   .     S
Ni57   Pt263   2.626   .     S
Ni57   Pt291   2.626   .     S
Ni58   Ni94    2.726   .     S
Ni58   Ni127   2.726   .     S
Ni58   Pt181   2.626   .     S
Ni58   Pt201   2.626   .     S
Ni58   Pt214   2.626   .     S
Ni58   Pt224   2.626   .     S
Ni58   Pt240   2.626   .     S
Ni58   Pt253   2.626   .     S
Ni58   Pt266   2.626   .     S
Ni58   Pt294   2.626   .     S
Ni59   Ni92    2.726   .     S
Ni59   Ni137   2.726   .     S
Ni59   Pt180   2.626   .     S
Ni59   Pt200   2.626   .     S
Ni59   Pt215   2.626   .     S
Ni59   Pt225   2.626   .     S
Ni59   Pt241   2.626   .     S
Ni59   Pt252   2.626   .     S
Ni59   Pt267   2.626   .     S
Ni59   Pt295   2.626   .     S
Ni60   Ni93    2.726   .     S
Ni60   Ni130   2.726   .     S
Ni60   Pt182   2.626   .     S
Ni60   Pt199   2.626   .     S
Ni60   Pt212   2.626   .     S
Ni60   Pt231   2.626   .     S
Ni60   Pt238   2.626   .     S
Ni60   Pt254   2.626   .     S
Ni60   Pt271   2.626   .     S
Ni60   Pt292   2.626   .     S
Ni61   Ni94    2.726   .     S
Ni61   Ni129   2.726   .     S
Ni61   Pt185   2.626   .     S
Ni61   Pt201   2.626   .     S
Ni61   Pt216   2.626   .     S
Ni61   Pt232   2.626   .     S
Ni61   Pt240   2.626   .     S
Ni61   Pt257   2.626   .     S
Ni61   Pt272   2.626   .     S
Ni61   Pt297   2.626   .     S
Ni62   Ni92    2.726   .     S
Ni62   Ni131   2.726   .     S
Ni62   Pt184   2.626   .     S
Ni62   Pt200   2.626   .     S
Ni62   Pt217   2.626   .     S
Ni62   Pt233   2.626   .     S
Ni62   Pt241   2.626   .     S
Ni62   Pt256   2.626   .     S
Ni62   Pt273   2.626   .     S
Ni62   Pt296   2.626   .     S
Ni63   Ni95    2.726   .     S
Ni63   Ni132   2.726   .     S
Ni63   Pt183   2.626   .     S
Ni63   Pt198   2.626   .     S
Ni63   Pt213   2.626   .     S
Ni63   Pt230   2.626   .     S
Ni63   Pt239   2.626   .     S
Ni63   Pt255   2.626   .     S
Ni63   Pt270   2.626   .     S
Ni63   Pt293   2.626   .     S
Ni64   Ni66    2.725   .     S
Ni64   Ni68    2.725   .     S
Ni64   Ni69    2.725   .     S
Ni64   Ni73    2.725   .     S
Ni64   Pt186   2.626   .     S
Ni64   Pt187   2.626   .     S
Ni64   Pt188   2.626   .     S
Ni64   Pt189   2.626   .     S
Ni64   Pt274   2.626   .     S
Ni64   Pt275   2.626   .     S
Ni64   Pt276   2.626   .     S
Ni64   Pt277   2.626   .     S
Ni65   Ni67    2.725   .     S
Ni65   Ni70    2.725   .     S
Ni65   Ni71    2.725   .     S
Ni65   Ni72    2.725   .     S
Ni65   Pt190   2.626   .     S
Ni65   Pt191   2.626   .     S
Ni65   Pt192   2.626   .     S
Ni65   Pt193   2.626   .     S
Ni65   Pt278   2.626   .     S
Ni65   Pt279   2.626   .     S
Ni65   Pt280   2.626   .     S
Ni65   Pt281   2.626   .     S
Ni66   Ni79    2.726   .     S
Ni66   Ni85    2.726   .     S
Ni66   Ni121   2.726   .     S
Ni66   Pt186   2.626   .     S
Ni66   Pt187   2.626   .     S
Ni66   Pt202   2.626   .     S
Ni66   Pt203   2.626   .     S
Ni66   Pt274   2.626   .     S
Ni66   Pt275   2.626   .     S
Ni66   Pt322   2.626   .     S
Ni66   Pt323   2.626   .     S
Ni67   Ni83    2.726   .     S
Ni67   Ni84    2.726   .     S
Ni67   Ni117   2.726   .     S
Ni67   Pt190   2.626   .     S
Ni67   Pt191   2.626   .     S
Ni67   Pt206   2.626   .     S
Ni67   Pt207   2.626   .     S
Ni67   Pt278   2.626   .     S
Ni67   Pt279   2.626   .     S
Ni67   Pt328   2.626   .     S
Ni67   Pt329   2.626   .     S
Ni68   Ni79    2.726   .     S
Ni68   Ni81    2.726   .     S
Ni68   Ni115   2.726   .     S
Ni68   Pt186   2.626   .     S
Ni68   Pt189   2.626   .     S
Ni68   Pt205   2.626   .     S
Ni68   Pt211   2.626   .     S
Ni68   Pt274   2.626   .     S
Ni68   Pt277   2.626   .     S
Ni68   Pt324   2.626   .     S
Ni68   Pt327   2.626   .     S
Ni69   Ni80    2.726   .     S
Ni69   Ni85    2.726   .     S
Ni69   Ni120   2.726   .     S
Ni69   Pt187   2.626   .     S
Ni69   Pt188   2.626   .     S
Ni69   Pt204   2.626   .     S
Ni69   Pt210   2.626   .     S
Ni69   Pt275   2.626   .     S
Ni69   Pt276   2.626   .     S
Ni69   Pt325   2.626   .     S
Ni69   Pt326   2.626   .     S
Ni70   Ni82    2.726   .     S
Ni70   Ni84    2.726   .     S
Ni70   Ni119   2.726   .     S
Ni70   Pt190   2.626   .     S
Ni70   Pt193   2.626   .     S
Ni70   Pt209   2.626   .     S
Ni70   Pt214   2.626   .     S
Ni70   Pt279   2.626   .     S
Ni70   Pt281   2.626   .     S
Ni70   Pt333   2.626   .     S
Ni70   Pt335   2.626   .     S
Ni71   Ni78    2.726   .     S
Ni71   Ni83    2.726   .     S
Ni71   Ni118   2.726   .     S
Ni71   Pt191   2.626   .     S
Ni71   Pt192   2.626   .     S
Ni71   Pt208   2.626   .     S
Ni71   Pt215   2.626   .     S
Ni71   Pt278   2.626   .     S
Ni71   Pt280   2.626   .     S
Ni71   Pt332   2.626   .     S
Ni71   Pt334   2.626   .     S
Ni72   Ni78    2.726   .     S
Ni72   Ni82    2.726   .     S
Ni72   Ni114   2.726   .     S
Ni72   Pt192   2.626   .     S
Ni72   Pt193   2.626   .     S
Ni72   Pt216   2.626   .     S
Ni72   Pt217   2.626   .     S
Ni72   Pt280   2.626   .     S
Ni72   Pt281   2.626   .     S
Ni72   Pt336   2.626   .     S
Ni72   Pt337   2.626   .     S
Ni73   Ni80    2.726   .     S
Ni73   Ni81    2.726   .     S
Ni73   Ni116   2.726   .     S
Ni73   Pt188   2.626   .     S
Ni73   Pt189   2.626   .     S
Ni73   Pt212   2.626   .     S
Ni73   Pt213   2.626   .     S
Ni73   Pt276   2.626   .     S
Ni73   Pt277   2.626   .     S
Ni73   Pt330   2.626   .     S
Ni73   Pt331   2.626   .     S
Ni74   Ni154   2.725   .     S
Ni74   Ni157   2.725   .     S
Ni74   Pt195   2.626   .     S
Ni74   Pt197   2.626   .     S
Ni74   Pt243   2.626   .     S
Ni74   Pt244   2.626   .     S
Ni74   Pt247   2.626   .     S
Ni74   Pt248   2.626   .     S
Ni74   Pt303   2.626   .     S
Ni74   Pt307   2.626   .     S
Ni75   Ni159   2.725   .     S
Ni75   Ni161   2.725   .     S
Ni75   Pt198   2.626   .     S
Ni75   Pt200   2.626   .     S
Ni75   Pt250   2.626   .     S
Ni75   Pt252   2.626   .     S
Ni75   Pt255   2.626   .     S
Ni75   Pt256   2.626   .     S
Ni75   Pt312   2.626   .     S
Ni75   Pt315   2.626   .     S
Ni76   Ni158   2.725   .     S
Ni76   Ni160   2.725   .     S
Ni76   Pt199   2.626   .     S
Ni76   Pt201   2.626   .     S
Ni76   Pt251   2.626   .     S
Ni76   Pt253   2.626   .     S
Ni76   Pt254   2.626   .     S
Ni76   Pt257   2.626   .     S
Ni76   Pt310   2.626   .     S
Ni76   Pt317   2.626   .     S
Ni77   Ni155   2.725   .     S
Ni77   Ni156   2.725   .     S
Ni77   Pt194   2.626   .     S
Ni77   Pt196   2.626   .     S
Ni77   Pt242   2.626   .     S
Ni77   Pt245   2.626   .     S
Ni77   Pt246   2.626   .     S
Ni77   Pt249   2.626   .     S
Ni77   Pt302   2.626   .     S
Ni77   Pt306   2.626   .     S
Ni78   Ni148   2.725   .     S
Ni78   Ni150   2.725   .     S
Ni78   Pt192   2.626   .     S
Ni78   Pt215   2.626   .     S
Ni78   Pt217   2.626   .     S
Ni78   Pt241   2.626   .     S
Ni78   Pt280   2.626   .     S
Ni78   Pt334   2.626   .     S
Ni78   Pt337   2.626   .     S
Ni79   Ni138   2.725   .     S
Ni79   Ni142   2.725   .     S
Ni79   Pt186   2.626   .     S
Ni79   Pt202   2.626   .     S
Ni79   Pt205   2.626   .     S
Ni79   Pt234   2.626   .     S
Ni79   Pt274   2.626   .     S
Ni79   Pt323   2.626   .     S
Ni79   Pt324   2.626   .     S
Ni80   Ni147   2.725   .     S
Ni80   Ni152   2.725   .     S
Ni80   Pt188   2.626   .     S
Ni80   Pt210   2.626   .     S
Ni80   Pt213   2.626   .     S
Ni80   Pt239   2.626   .     S
Ni80   Pt276   2.626   .     S
Ni80   Pt326   2.626   .     S
Ni80   Pt331   2.626   .     S
Ni81   Ni146   2.725   .     S
Ni81   Ni153   2.725   .     S
Ni81   Pt189   2.626   .     S
Ni81   Pt211   2.626   .     S
Ni81   Pt212   2.626   .     S
Ni81   Pt238   2.626   .     S
Ni81   Pt277   2.626   .     S
Ni81   Pt327   2.626   .     S
Ni81   Pt330   2.626   .     S
Ni82   Ni149   2.725   .     S
Ni82   Ni151   2.725   .     S
Ni82   Pt193   2.626   .     S
Ni82   Pt214   2.626   .     S
Ni82   Pt216   2.626   .     S
Ni82   Pt240   2.626   .     S
Ni82   Pt281   2.626   .     S
Ni82   Pt335   2.626   .     S
Ni82   Pt336   2.626   .     S
Ni83   Ni141   2.725   .     S
Ni83   Ni145   2.725   .     S
Ni83   Pt191   2.626   .     S
Ni83   Pt207   2.626   .     S
Ni83   Pt208   2.626   .     S
Ni83   Pt237   2.626   .     S
Ni83   Pt278   2.626   .     S
Ni83   Pt328   2.626   .     S
Ni83   Pt332   2.626   .     S
Ni84   Ni139   2.725   .     S
Ni84   Ni143   2.725   .     S
Ni84   Pt190   2.626   .     S
Ni84   Pt206   2.626   .     S
Ni84   Pt209   2.626   .     S
Ni84   Pt236   2.626   .     S
Ni84   Pt279   2.626   .     S
Ni84   Pt329   2.626   .     S
Ni84   Pt333   2.626   .     S
Ni85   Ni140   2.725   .     S
Ni85   Ni144   2.725   .     S
Ni85   Pt187   2.626   .     S
Ni85   Pt203   2.626   .     S
Ni85   Pt204   2.626   .     S
Ni85   Pt235   2.626   .     S
Ni85   Pt275   2.626   .     S
Ni85   Pt322   2.626   .     S
Ni85   Pt325   2.626   .     S
Ni86   Ni99    2.726   .     S
Ni86   Ni105   2.726   .     S
Ni86   Pt218   2.626   .     S
Ni86   Pt219   2.626   .     S
Ni86   Pt220   2.626   .     S
Ni86   Pt221   2.626   .     S
Ni86   Pt298   2.626   .     S
Ni86   Pt299   2.626   .     S
Ni86   Pt300   2.626   .     S
Ni86   Pt301   2.626   .     S
Ni87   Ni101   2.726   .     S
Ni87   Ni103   2.726   .     S
Ni87   Pt222   2.626   .     S
Ni87   Pt224   2.626   .     S
Ni87   Pt226   2.626   .     S
Ni87   Pt228   2.626   .     S
Ni87   Pt304   2.626   .     S
Ni87   Pt308   2.626   .     S
Ni87   Pt313   2.626   .     S
Ni87   Pt314   2.626   .     S
Ni88   Ni102   2.726   .     S
Ni88   Ni104   2.726   .     S
Ni88   Pt223   2.626   .     S
Ni88   Pt225   2.626   .     S
Ni88   Pt227   2.626   .     S
Ni88   Pt229   2.626   .     S
Ni88   Pt305   2.626   .     S
Ni88   Pt309   2.626   .     S
Ni88   Pt311   2.626   .     S
Ni88   Pt316   2.626   .     S
Ni89   Ni98    2.726   .     S
Ni89   Ni100   2.726   .     S
Ni89   Pt230   2.626   .     S
Ni89   Pt231   2.626   .     S
Ni89   Pt232   2.626   .     S
Ni89   Pt233   2.626   .     S
Ni89   Pt318   2.626   .     S
Ni89   Pt319   2.626   .     S
Ni89   Pt320   2.626   .     S
Ni89   Pt321   2.626   .     S
Ni90   Pt194   2.626   .     S
Ni90   Pt234   2.626   .     S
Ni90   Pt242   2.626   .     S
Ni90   Pt246   2.626   .     S
Ni90   Pt282   2.626   .     S
Ni90   Pt284   2.626   .     S
Ni90   Pt302   2.626   .     S
Ni91   Pt197   2.626   .     S
Ni91   Pt237   2.626   .     S
Ni91   Pt244   2.626   .     S
Ni91   Pt248   2.626   .     S
Ni91   Pt286   2.626   .     S
Ni91   Pt289   2.626   .     S
Ni91   Pt307   2.626   .     S
Ni92   Pt200   2.626   .     S
Ni92   Pt241   2.626   .     S
Ni92   Pt252   2.626   .     S
Ni92   Pt256   2.626   .     S
Ni92   Pt295   2.626   .     S
Ni92   Pt296   2.626   .     S
Ni92   Pt315   2.626   .     S
Ni93   Pt199   2.626   .     S
Ni93   Pt238   2.626   .     S
Ni93   Pt251   2.626   .     S
Ni93   Pt254   2.626   .     S
Ni93   Pt291   2.626   .     S
Ni93   Pt292   2.626   .     S
Ni93   Pt310   2.626   .     S
Ni94   Pt201   2.626   .     S
Ni94   Pt240   2.626   .     S
Ni94   Pt253   2.626   .     S
Ni94   Pt257   2.626   .     S
Ni94   Pt294   2.626   .     S
Ni94   Pt297   2.626   .     S
Ni94   Pt317   2.626   .     S
Ni95   Pt198   2.626   .     S
Ni95   Pt239   2.626   .     S
Ni95   Pt250   2.626   .     S
Ni95   Pt255   2.626   .     S
Ni95   Pt290   2.626   .     S
Ni95   Pt293   2.626   .     S
Ni95   Pt312   2.626   .     S
Ni96   Pt195   2.626   .     S
Ni96   Pt235   2.626   .     S
Ni96   Pt243   2.626   .     S
Ni96   Pt247   2.626   .     S
Ni96   Pt283   2.626   .     S
Ni96   Pt285   2.626   .     S
Ni96   Pt303   2.626   .     S
Ni97   Pt196   2.626   .     S
Ni97   Pt236   2.626   .     S
Ni97   Pt245   2.626   .     S
Ni97   Pt249   2.626   .     S
Ni97   Pt287   2.626   .     S
Ni97   Pt288   2.626   .     S
Ni97   Pt306   2.626   .     S
Ni98   Ni161   2.726   .     S
Ni98   Pt230   2.626   .     S
Ni98   Pt233   2.626   .     S
Ni98   Pt255   2.626   .     S
Ni98   Pt256   2.626   .     S
Ni98   Pt319   2.626   .     S
Ni98   Pt320   2.626   .     S
Ni99   Ni154   2.726   .     S
Ni99   Pt218   2.626   .     S
Ni99   Pt221   2.626   .     S
Ni99   Pt243   2.626   .     S
Ni99   Pt244   2.626   .     S
Ni99   Pt298   2.626   .     S
Ni99   Pt301   2.626   .     S
Ni100  Ni160   2.726   .     S
Ni100  Pt231   2.626   .     S
Ni100  Pt232   2.626   .     S
Ni100  Pt254   2.626   .     S
Ni100  Pt257   2.626   .     S
Ni100  Pt318   2.626   .     S
Ni100  Pt321   2.626   .     S
Ni101  Ni158   2.726   .     S
Ni101  Pt222   2.626   .     S
Ni101  Pt224   2.626   .     S
Ni101  Pt251   2.626   .     S
Ni101  Pt253   2.626   .     S
Ni101  Pt313   2.626   .     S
Ni101  Pt314   2.626   .     S
Ni102  Ni159   2.726   .     S
Ni102  Pt223   2.626   .     S
Ni102  Pt225   2.626   .     S
Ni102  Pt250   2.626   .     S
Ni102  Pt252   2.626   .     S
Ni102  Pt311   2.626   .     S
Ni102  Pt316   2.626   .     S
Ni103  Ni156   2.726   .     S
Ni103  Pt226   2.626   .     S
Ni103  Pt228   2.626   .     S
Ni103  Pt246   2.626   .     S
Ni103  Pt249   2.626   .     S
Ni103  Pt304   2.626   .     S
Ni103  Pt308   2.626   .     S
Ni104  Ni157   2.726   .     S
Ni104  Pt227   2.626   .     S
Ni104  Pt229   2.626   .     S
Ni104  Pt247   2.626   .     S
Ni104  Pt248   2.626   .     S
Ni104  Pt305   2.626   .     S
Ni104  Pt309   2.626   .     S
Ni105  Ni155   2.726   .     S
Ni105  Pt219   2.626   .     S
Ni105  Pt220   2.626   .     S
Ni105  Pt242   2.626   .     S
Ni105  Pt245   2.626   .     S
Ni105  Pt299   2.626   .     S
Ni105  Pt300   2.626   .     S
Ni106  Ni124   2.726   .     S
Ni106  Ni128   2.726   .     S
Ni106  Pt218   2.626   .     S
Ni106  Pt219   2.626   .     S
Ni106  Pt258   2.626   .     S
Ni106  Pt259   2.626   .     S
Ni106  Pt298   2.626   .     S
Ni106  Pt299   2.626   .     S
Ni107  Ni126   2.726   .     S
Ni107  Ni136   2.726   .     S
Ni107  Pt220   2.626   .     S
Ni107  Pt221   2.626   .     S
Ni107  Pt260   2.626   .     S
Ni107  Pt261   2.626   .     S
Ni107  Pt300   2.626   .     S
Ni107  Pt301   2.626   .     S
Ni108  Ni123   2.726   .     S
Ni108  Ni125   2.726   .     S
Ni108  Pt222   2.626   .     S
Ni108  Pt226   2.626   .     S
Ni108  Pt263   2.626   .     S
Ni108  Pt264   2.626   .     S
Ni108  Pt304   2.626   .     S
Ni108  Pt313   2.626   .     S
Ni109  Ni133   2.726   .     S
Ni109  Ni134   2.726   .     S
Ni109  Pt223   2.626   .     S
Ni109  Pt227   2.626   .     S
Ni109  Pt262   2.626   .     S
Ni109  Pt265   2.626   .     S
Ni109  Pt305   2.626   .     S
Ni109  Pt311   2.626   .     S
Ni110  Ni127   2.726   .     S
Ni110  Ni135   2.726   .     S
Ni110  Pt224   2.626   .     S
Ni110  Pt228   2.626   .     S
Ni110  Pt266   2.626   .     S
Ni110  Pt268   2.626   .     S
Ni110  Pt308   2.626   .     S
Ni110  Pt314   2.626   .     S
Ni111  Ni122   2.726   .     S
Ni111  Ni137   2.726   .     S
Ni111  Pt225   2.626   .     S
Ni111  Pt229   2.626   .     S
Ni111  Pt267   2.626   .     S
Ni111  Pt269   2.626   .     S
Ni111  Pt309   2.626   .     S
Ni111  Pt316   2.626   .     S
Ni112  Ni130   2.726   .     S
Ni112  Ni132   2.726   .     S
Ni112  Pt230   2.626   .     S
Ni112  Pt231   2.626   .     S
Ni112  Pt270   2.626   .     S
Ni112  Pt271   2.626   .     S
Ni112  Pt318   2.626   .     S
Ni112  Pt319   2.626   .     S
Ni113  Ni129   2.726   .     S
Ni113  Ni131   2.726   .     S
Ni113  Pt232   2.626   .     S
Ni113  Pt233   2.626   .     S
Ni113  Pt272   2.626   .     S
Ni113  Pt273   2.626   .     S
Ni113  Pt320   2.626   .     S
Ni113  Pt321   2.626   .     S
Ni114  Ni150   2.726   .     S
Ni114  Ni151   2.726   .     S
Ni114  Pt216   2.626   .     S
Ni114  Pt217   2.626   .     S
Ni114  Pt272   2.626   .     S
Ni114  Pt273   2.626   .     S
Ni114  Pt336   2.626   .     S
Ni114  Pt337   2.626   .     S
Ni115  Ni142   2.726   .     S
Ni115  Ni146   2.726   .     S
Ni115  Pt205   2.626   .     S
Ni115  Pt211   2.626   .     S
Ni115  Pt263   2.626   .     S
Ni115  Pt264   2.626   .     S
Ni115  Pt324   2.626   .     S
Ni115  Pt327   2.626   .     S
Ni116  Ni152   2.726   .     S
Ni116  Ni153   2.726   .     S
Ni116  Pt212   2.626   .     S
Ni116  Pt213   2.626   .     S
Ni116  Pt270   2.626   .     S
Ni116  Pt271   2.626   .     S
Ni116  Pt330   2.626   .     S
Ni116  Pt331   2.626   .     S
Ni117  Ni139   2.726   .     S
Ni117  Ni141   2.726   .     S
Ni117  Pt206   2.626   .     S
Ni117  Pt207   2.626   .     S
Ni117  Pt260   2.626   .     S
Ni117  Pt261   2.626   .     S
Ni117  Pt328   2.626   .     S
Ni117  Pt329   2.626   .     S
Ni118  Ni145   2.726   .     S
Ni118  Ni148   2.726   .     S
Ni118  Pt208   2.626   .     S
Ni118  Pt215   2.626   .     S
Ni118  Pt267   2.626   .     S
Ni118  Pt269   2.626   .     S
Ni118  Pt332   2.626   .     S
Ni118  Pt334   2.626   .     S
Ni119  Ni143   2.726   .     S
Ni119  Ni149   2.726   .     S
Ni119  Pt209   2.626   .     S
Ni119  Pt214   2.626   .     S
Ni119  Pt266   2.626   .     S
Ni119  Pt268   2.626   .     S
Ni119  Pt333   2.626   .     S
Ni119  Pt335   2.626   .     S
Ni120  Ni144   2.726   .     S
Ni120  Ni147   2.726   .     S
Ni120  Pt204   2.626   .     S
Ni120  Pt210   2.626   .     S
Ni120  Pt262   2.626   .     S
Ni120  Pt265   2.626   .     S
Ni120  Pt325   2.626   .     S
Ni120  Pt326   2.626   .     S
Ni121  Ni138   2.726   .     S
Ni121  Ni140   2.726   .     S
Ni121  Pt202   2.626   .     S
Ni121  Pt203   2.626   .     S
Ni121  Pt258   2.626   .     S
Ni121  Pt259   2.626   .     S
Ni121  Pt322   2.626   .     S
Ni121  Pt323   2.626   .     S
Ni122  Pt229   2.626   .     S
Ni122  Pt248   2.626   .     S
Ni122  Pt269   2.626   .     S
Ni122  Pt289   2.626   .     S
Ni122  Pt309   2.626   .     S
Ni123  Pt226   2.626   .     S
Ni123  Pt246   2.626   .     S
Ni123  Pt264   2.626   .     S
Ni123  Pt284   2.626   .     S
Ni123  Pt304   2.626   .     S
Ni124  Pt218   2.626   .     S
Ni124  Pt243   2.626   .     S
Ni124  Pt259   2.626   .     S
Ni124  Pt283   2.626   .     S
Ni124  Pt298   2.626   .     S
Ni125  Pt222   2.626   .     S
Ni125  Pt251   2.626   .     S
Ni125  Pt263   2.626   .     S
Ni125  Pt291   2.626   .     S
Ni125  Pt313   2.626   .     S
Ni126  Pt221   2.626   .     S
Ni126  Pt244   2.626   .     S
Ni126  Pt260   2.626   .     S
Ni126  Pt286   2.626   .     S
Ni126  Pt301   2.626   .     S
Ni127  Pt224   2.626   .     S
Ni127  Pt253   2.626   .     S
Ni127  Pt266   2.626   .     S
Ni127  Pt294   2.626   .     S
Ni127  Pt314   2.626   .     S
Ni128  Pt219   2.626   .     S
Ni128  Pt242   2.626   .     S
Ni128  Pt258   2.626   .     S
Ni128  Pt282   2.626   .     S
Ni128  Pt299   2.626   .     S
Ni129  Pt232   2.626   .     S
Ni129  Pt257   2.626   .     S
Ni129  Pt272   2.626   .     S
Ni129  Pt297   2.626   .     S
Ni129  Pt321   2.626   .     S
Ni130  Pt231   2.626   .     S
Ni130  Pt254   2.626   .     S
Ni130  Pt271   2.626   .     S
Ni130  Pt292   2.626   .     S
Ni130  Pt318   2.626   .     S
Ni131  Pt233   2.626   .     S
Ni131  Pt256   2.626   .     S
Ni131  Pt273   2.626   .     S
Ni131  Pt296   2.626   .     S
Ni131  Pt320   2.626   .     S
Ni132  Pt230   2.626   .     S
Ni132  Pt255   2.626   .     S
Ni132  Pt270   2.626   .     S
Ni132  Pt293   2.626   .     S
Ni132  Pt319   2.626   .     S
Ni133  Pt223   2.626   .     S
Ni133  Pt250   2.626   .     S
Ni133  Pt262   2.626   .     S
Ni133  Pt290   2.626   .     S
Ni133  Pt311   2.626   .     S
Ni134  Pt227   2.626   .     S
Ni134  Pt247   2.626   .     S
Ni134  Pt265   2.626   .     S
Ni134  Pt285   2.626   .     S
Ni134  Pt305   2.626   .     S
Ni135  Pt228   2.626   .     S
Ni135  Pt249   2.626   .     S
Ni135  Pt268   2.626   .     S
Ni135  Pt288   2.626   .     S
Ni135  Pt308   2.626   .     S
Ni136  Pt220   2.626   .     S
Ni136  Pt245   2.626   .     S
Ni136  Pt261   2.626   .     S
Ni136  Pt287   2.626   .     S
Ni136  Pt300   2.626   .     S
Ni137  Pt225   2.626   .     S
Ni137  Pt252   2.626   .     S
Ni137  Pt267   2.626   .     S
Ni137  Pt295   2.626   .     S
Ni137  Pt316   2.626   .     S
Ni138  Pt202   2.626   .     S
Ni138  Pt234   2.626   .     S
Ni138  Pt258   2.626   .     S
Ni138  Pt282   2.626   .     S
Ni138  Pt323   2.626   .     S
Ni139  Pt206   2.626   .     S
Ni139  Pt236   2.626   .     S
Ni139  Pt261   2.626   .     S
Ni139  Pt287   2.626   .     S
Ni139  Pt329   2.626   .     S
Ni140  Pt203   2.626   .     S
Ni140  Pt235   2.626   .     S
Ni140  Pt259   2.626   .     S
Ni140  Pt283   2.626   .     S
Ni140  Pt322   2.626   .     S
Ni141  Pt207   2.626   .     S
Ni141  Pt237   2.626   .     S
Ni141  Pt260   2.626   .     S
Ni141  Pt286   2.626   .     S
Ni141  Pt328   2.626   .     S
Ni142  Pt205   2.626   .     S
Ni142  Pt234   2.626   .     S
Ni142  Pt264   2.626   .     S
Ni142  Pt284   2.626   .     S
Ni142  Pt324   2.626   .     S
Ni143  Pt209   2.626   .     S
Ni143  Pt236   2.626   .     S
Ni143  Pt268   2.626   .     S
Ni143  Pt288   2.626   .     S
Ni143  Pt333   2.626   .     S
Ni144  Pt204   2.626   .     S
Ni144  Pt235   2.626   .     S
Ni144  Pt265   2.626   .     S
Ni144  Pt285   2.626   .     S
Ni144  Pt325   2.626   .     S
Ni145  Pt208   2.626   .     S
Ni145  Pt237   2.626   .     S
Ni145  Pt269   2.626   .     S
Ni145  Pt289   2.626   .     S
Ni145  Pt332   2.626   .     S
Ni146  Pt211   2.626   .     S
Ni146  Pt238   2.626   .     S
Ni146  Pt263   2.626   .     S
Ni146  Pt291   2.626   .     S
Ni146  Pt327   2.626   .     S
Ni147  Pt210   2.626   .     S
Ni147  Pt239   2.626   .     S
Ni147  Pt262   2.626   .     S
Ni147  Pt290   2.626   .     S
Ni147  Pt326   2.626   .     S
Ni148  Pt215   2.626   .     S
Ni148  Pt241   2.626   .     S
Ni148  Pt267   2.626   .     S
Ni148  Pt295   2.626   .     S
Ni148  Pt334   2.626   .     S
Ni149  Pt214   2.626   .     S
Ni149  Pt240   2.626   .     S
Ni149  Pt266   2.626   .     S
Ni149  Pt294   2.626   .     S
Ni149  Pt335   2.626   .     S
Ni150  Pt217   2.626   .     S
Ni150  Pt241   2.626   .     S
Ni150  Pt273   2.626   .     S
Ni150  Pt296   2.626   .     S
Ni150  Pt337   2.626   .     S
Ni151  Pt216   2.626   .     S
Ni151  Pt240   2.626   .     S
Ni151  Pt272   2.626   .     S
Ni151  Pt297   2.626   .     S
Ni151  Pt336   2.626   .     S
Ni152  Pt213   2.626   .     S
Ni152  Pt239   2.626   .     S
Ni152  Pt270   2.626   .     S
Ni152  Pt293   2.626   .     S
Ni152  Pt331   2.626   .     S
Ni153  Pt212   2.626   .     S
Ni153  Pt238   2.626   .     S
Ni153  Pt271   2.626   .     S
Ni153  Pt292   2.626   .     S
Ni153  Pt330   2.626   .     S
Ni154  Pt243   2.626   .     S
Ni154  Pt244   2.626   .     S
Ni154  Pt303   2.626   .     S
Ni154  Pt307   2.626   .     S
Ni155  Pt242   2.626   .     S
Ni155  Pt245   2.626   .     S
Ni155  Pt302   2.626   .     S
Ni155  Pt306   2.626   .     S
Ni156  Pt246   2.626   .     S
Ni156  Pt249   2.626   .     S
Ni156  Pt302   2.626   .     S
Ni156  Pt306   2.626   .     S
Ni157  Pt247   2.626   .     S
Ni157  Pt248   2.626   .     S
Ni157  Pt303   2.626   .     S
Ni157  Pt307   2.626   .     S
Ni158  Pt251   2.626   .     S
Ni158  Pt253   2.626   .     S
Ni158  Pt310   2.626   .     S
Ni158  Pt317   2.626   .     S
Ni159  Pt250   2.626   .     S
Ni159  Pt252   2.626   .     S
Ni159  Pt312   2.626   .     S
Ni159  Pt315   2.626   .     S
Ni160  Pt254   2.626   .     S
Ni160  Pt257   2.626   .     S
Ni160  Pt310   2.626   .     S
Ni160  Pt317   2.626   .     S
Ni161  Pt255   2.626   .     S
Ni161  Pt256   2.626   .     S
Ni161  Pt312   2.626   .     S
Ni161  Pt315   2.626   .     S
Pt162  Pt163   2.725   .     S
Pt162  Pt167   2.725   .     S
Pt162  Pt170   2.726   .     S
Pt162  Pt175   2.726   .     S
Pt163  Pt166   2.725   .     S
Pt163  Pt171   2.726   .     S
Pt163  Pt174   2.726   .     S
Pt164  Pt165   2.725   .     S
Pt164  Pt169   2.725   .     S
Pt164  Pt173   2.726   .     S
Pt164  Pt176   2.726   .     S
Pt165  Pt168   2.725   .     S
Pt165  Pt172   2.726   .     S
Pt165  Pt177   2.726   .     S
Pt166  Pt167   2.725   .     S
Pt166  Pt178   2.726   .     S
Pt166  Pt182   2.726   .     S
Pt167  Pt179   2.726   .     S
Pt167  Pt183   2.726   .     S
Pt168  Pt169   2.725   .     S
Pt168  Pt180   2.726   .     S
Pt168  Pt184   2.726   .     S
Pt169  Pt181   2.726   .     S
Pt169  Pt185   2.726   .     S
Pt170  Pt171   2.726   .     S
Pt170  Pt195   2.725   .     S
Pt170  Pt218   2.726   .     S
Pt171  Pt194   2.725   .     S
Pt171  Pt219   2.726   .     S
Pt172  Pt173   2.726   .     S
Pt172  Pt197   2.725   .     S
Pt172  Pt221   2.726   .     S
Pt173  Pt196   2.725   .     S
Pt173  Pt220   2.726   .     S
Pt174  Pt178   2.726   .     S
Pt174  Pt194   2.725   .     S
Pt174  Pt226   2.726   .     S
Pt175  Pt179   2.726   .     S
Pt175  Pt195   2.725   .     S
Pt175  Pt227   2.726   .     S
Pt176  Pt181   2.726   .     S
Pt176  Pt196   2.725   .     S
Pt176  Pt228   2.726   .     S
Pt177  Pt180   2.726   .     S
Pt177  Pt197   2.725   .     S
Pt177  Pt229   2.726   .     S
Pt178  Pt199   2.725   .     S
Pt178  Pt222   2.726   .     S
Pt179  Pt198   2.725   .     S
Pt179  Pt223   2.726   .     S
Pt180  Pt200   2.725   .     S
Pt180  Pt225   2.726   .     S
Pt181  Pt201   2.725   .     S
Pt181  Pt224   2.726   .     S
Pt182  Pt183   2.726   .     S
Pt182  Pt199   2.725   .     S
Pt182  Pt231   2.726   .     S
Pt183  Pt198   2.725   .     S
Pt183  Pt230   2.726   .     S
Pt184  Pt185   2.726   .     S
Pt184  Pt200   2.725   .     S
Pt184  Pt233   2.726   .     S
Pt185  Pt201   2.725   .     S
Pt185  Pt232   2.726   .     S
Pt186  Pt187   2.725   .     S
Pt186  Pt189   2.725   .     S
Pt186  Pt202   2.726   .     S
Pt186  Pt205   2.726   .     S
Pt187  Pt188   2.725   .     S
Pt187  Pt203   2.726   .     S
Pt187  Pt204   2.726   .     S
Pt188  Pt189   2.725   .     S
Pt188  Pt210   2.726   .     S
Pt188  Pt213   2.726   .     S
Pt189  Pt211   2.726   .     S
Pt189  Pt212   2.726   .     S
Pt190  Pt191   2.725   .     S
Pt190  Pt193   2.725   .     S
Pt190  Pt206   2.726   .     S
Pt190  Pt209   2.726   .     S
Pt191  Pt192   2.725   .     S
Pt191  Pt207   2.726   .     S
Pt191  Pt208   2.726   .     S
Pt192  Pt193   2.725   .     S
Pt192  Pt215   2.726   .     S
Pt192  Pt217   2.726   .     S
Pt193  Pt214   2.726   .     S
Pt193  Pt216   2.726   .     S
Pt194  Pt242   2.726   .     S
Pt194  Pt246   2.726   .     S
Pt195  Pt243   2.726   .     S
Pt195  Pt247   2.726   .     S
Pt196  Pt245   2.726   .     S
Pt196  Pt249   2.726   .     S
Pt197  Pt244   2.726   .     S
Pt197  Pt248   2.726   .     S
Pt198  Pt250   2.726   .     S
Pt198  Pt255   2.726   .     S
Pt199  Pt251   2.726   .     S
Pt199  Pt254   2.726   .     S
Pt200  Pt252   2.726   .     S
Pt200  Pt256   2.726   .     S
Pt201  Pt253   2.726   .     S
Pt201  Pt257   2.726   .     S
Pt202  Pt203   2.726   .     S
Pt202  Pt234   2.725   .     S
Pt202  Pt258   2.726   .     S
Pt203  Pt235   2.725   .     S
Pt203  Pt259   2.726   .     S
Pt204  Pt210   2.726   .     S
Pt204  Pt235   2.725   .     S
Pt204  Pt265   2.726   .     S
Pt205  Pt211   2.726   .     S
Pt205  Pt234   2.725   .     S
Pt205  Pt264   2.726   .     S
Pt206  Pt207   2.726   .     S
Pt206  Pt236   2.725   .     S
Pt206  Pt261   2.726   .     S
Pt207  Pt237   2.725   .     S
Pt207  Pt260   2.726   .     S
Pt208  Pt215   2.726   .     S
Pt208  Pt237   2.725   .     S
Pt208  Pt269   2.726   .     S
Pt209  Pt214   2.726   .     S
Pt209  Pt236   2.725   .     S
Pt209  Pt268   2.726   .     S
Pt210  Pt239   2.725   .     S
Pt210  Pt262   2.726   .     S
Pt211  Pt238   2.725   .     S
Pt211  Pt263   2.726   .     S
Pt212  Pt213   2.726   .     S
Pt212  Pt238   2.725   .     S
Pt212  Pt271   2.726   .     S
Pt213  Pt239   2.725   .     S
Pt213  Pt270   2.726   .     S
Pt214  Pt240   2.725   .     S
Pt214  Pt266   2.726   .     S
Pt215  Pt241   2.725   .     S
Pt215  Pt267   2.726   .     S
Pt216  Pt217   2.726   .     S
Pt216  Pt240   2.725   .     S
Pt216  Pt272   2.726   .     S
Pt217  Pt241   2.725   .     S
Pt217  Pt273   2.726   .     S
Pt218  Pt219   2.725   .     S
Pt218  Pt243   2.726   .     S
Pt218  Pt298   2.726   .     S
Pt219  Pt242   2.726   .     S
Pt219  Pt299   2.726   .     S
Pt220  Pt221   2.725   .     S
Pt220  Pt245   2.726   .     S
Pt220  Pt300   2.726   .     S
Pt221  Pt244   2.726   .     S
Pt221  Pt301   2.726   .     S
Pt222  Pt226   2.725   .     S
Pt222  Pt251   2.726   .     S
Pt222  Pt313   2.726   .     S
Pt223  Pt227   2.725   .     S
Pt223  Pt250   2.726   .     S
Pt223  Pt311   2.726   .     S
Pt224  Pt228   2.725   .     S
Pt224  Pt253   2.726   .     S
Pt224  Pt314   2.726   .     S
Pt225  Pt229   2.725   .     S
Pt225  Pt252   2.726   .     S
Pt225  Pt316   2.726   .     S
Pt226  Pt246   2.726   .     S
Pt226  Pt304   2.726   .     S
Pt227  Pt247   2.726   .     S
Pt227  Pt305   2.726   .     S
Pt228  Pt249   2.726   .     S
Pt228  Pt308   2.726   .     S
Pt229  Pt248   2.726   .     S
Pt229  Pt309   2.726   .     S
Pt230  Pt231   2.725   .     S
Pt230  Pt255   2.726   .     S
Pt230  Pt319   2.726   .     S
Pt231  Pt254   2.726   .     S
Pt231  Pt318   2.726   .     S
Pt232  Pt233   2.725   .     S
Pt232  Pt257   2.726   .     S
Pt232  Pt321   2.726   .     S
Pt233  Pt256   2.726   .     S
Pt233  Pt320   2.726   .     S
Pt234  Pt282   2.726   .     S
Pt234  Pt284   2.726   .     S
Pt235  Pt283   2.726   .     S
Pt235  Pt285   2.726   .     S
Pt236  Pt287   2.726   .     S
Pt236  Pt288   2.726   .     S
Pt237  Pt286   2.726   .     S
Pt237  Pt289   2.726   .     S
Pt238  Pt291   2.726   .     S
Pt238  Pt292   2.726   .     S
Pt239  Pt290   2.726   .     S
Pt239  Pt293   2.726   .     S
Pt240  Pt294   2.726   .     S
Pt240  Pt297   2.726   .     S
Pt241  Pt295   2.726   .     S
Pt241  Pt296   2.726   .     S
Pt242  Pt302   2.725   .     S
Pt243  Pt303   2.725   .     S
Pt244  Pt307   2.725   .     S
Pt245  Pt306   2.725   .     S
Pt246  Pt302   2.725   .     S
Pt247  Pt303   2.725   .     S
Pt248  Pt307   2.725   .     S
Pt249  Pt306   2.725   .     S
Pt250  Pt312   2.725   .     S
Pt251  Pt310   2.725   .     S
Pt252  Pt315   2.725   .     S
Pt253  Pt317   2.725   .     S
Pt254  Pt310   2.725   .     S
Pt255  Pt312   2.725   .     S
Pt256  Pt315   2.725   .     S
Pt257  Pt317   2.725   .     S
Pt258  Pt259   2.725   .     S
Pt258  Pt282   2.726   .     S
Pt259  Pt283   2.726   .     S
Pt260  Pt261   2.725   .     S
Pt260  Pt286   2.726   .     S
Pt261  Pt287   2.726   .     S
Pt262  Pt265   2.725   .     S
Pt262  Pt290   2.726   .     S
Pt263  Pt264   2.725   .     S
Pt263  Pt291   2.726   .     S
Pt264  Pt284   2.726   .     S
Pt265  Pt285   2.726   .     S
Pt266  Pt268   2.725   .     S
Pt266  Pt294   2.726   .     S
Pt267  Pt269   2.725   .     S
Pt267  Pt295   2.726   .     S
Pt268  Pt288   2.726   .     S
Pt269  Pt289   2.726   .     S
Pt270  Pt271   2.725   .     S
Pt270  Pt293   2.726   .     S
Pt271  Pt292   2.726   .     S
Pt272  Pt273   2.725   .     S
Pt272  Pt297   2.726   .     S
Pt273  Pt296   2.726   .     S
Pt274  Pt275   2.725   .     S
Pt274  Pt277   2.725   .     S
Pt274  Pt323   2.726   .     S
Pt274  Pt324   2.726   .     S
Pt275  Pt276   2.725   .     S
Pt275  Pt322   2.726   .     S
Pt275  Pt325   2.726   .     S
Pt276  Pt277   2.725   .     S
Pt276  Pt326   2.726   .     S
Pt276  Pt331   2.726   .     S
Pt277  Pt327   2.726   .     S
Pt277  Pt330   2.726   .     S
Pt278  Pt279   2.725   .     S
Pt278  Pt280   2.725   .     S
Pt278  Pt328   2.726   .     S
Pt278  Pt332   2.726   .     S
Pt279  Pt281   2.725   .     S
Pt279  Pt329   2.726   .     S
Pt279  Pt333   2.726   .     S
Pt280  Pt281   2.725   .     S
Pt280  Pt334   2.726   .     S
Pt280  Pt337   2.726   .     S
Pt281  Pt335   2.726   .     S
Pt281  Pt336   2.726   .     S
Pt298  Pt299   2.726   .     S
Pt300  Pt301   2.726   .     S
Pt304  Pt313   2.726   .     S
Pt305  Pt311   2.726   .     S
Pt308  Pt314   2.726   .     S
Pt309  Pt316   2.726   .     S
Pt318  Pt319   2.726   .     S
Pt320  Pt321   2.726   .     S
Pt322  Pt323   2.726   .     S
Pt324  Pt327   2.726   .     S
Pt325  Pt326   2.726   .     S
Pt328  Pt329   2.726   .     S
Pt330  Pt331   2.726   .     S
Pt332  Pt334   2.726   .     S
Pt333  Pt335   2.726   .     S
Pt336  Pt337   2.726   .     S
