data_super3_n4-con0.1_02_15nm
_audit_creation_date              2023-11-06
_audit_creation_method            'Materials Studio'
_symmetry_space_group_name_H-M    'P1'
_symmetry_Int_Tables_number       1
_symmetry_cell_setting            triclinic
loop_
_symmetry_equiv_pos_as_xyz
  x,y,z
_cell_length_a                    45.0000
_cell_length_b                    45.0000
_cell_length_c                    45.0000
_cell_angle_alpha                 90.0000
_cell_angle_beta                  90.0000
_cell_angle_gamma                 90.0000
loop_
_atom_site_label
_atom_site_type_symbol
_atom_site_fract_x
_atom_site_fract_y
_atom_site_fract_z
_atom_site_U_iso_or_equiv
_atom_site_adp_type
_atom_site_occupancy
Ni0    Ni    0.50000   0.50000   0.50000   0.00000  Uiso   1.00
Ni1    Ni    0.45717   0.50000   0.45717   0.00000  Uiso   1.00
Ni2    Ni    0.54283   0.50000   0.45717   0.00000  Uiso   1.00
Ni3    Ni    0.45717   0.50000   0.54283   0.00000  Uiso   1.00
Ni4    Ni    0.54283   0.50000   0.54283   0.00000  Uiso   1.00
Ni5    Ni    0.50000   0.57928   0.50000   0.00000  Uiso   1.00
Ni6    Ni    0.50000   0.42072   0.50000   0.00000  Uiso   1.00
Ni7    Ni    0.58566   0.50000   0.50000   0.00000  Uiso   1.00
Ni8    Ni    0.50000   0.50000   0.58566   0.00000  Uiso   1.00
Ni9    Ni    0.50000   0.50000   0.41434   0.00000  Uiso   1.00
Ni10   Ni    0.41434   0.50000   0.50000   0.00000  Uiso   1.00
Ni11   Ni    0.45717   0.57928   0.45717   0.00000  Uiso   1.00
Ni12   Ni    0.45717   0.42072   0.45717   0.00000  Uiso   1.00
Ni13   Ni    0.54283   0.57928   0.45717   0.00000  Uiso   1.00
Ni14   Ni    0.54283   0.42072   0.45717   0.00000  Uiso   1.00
Ni15   Ni    0.45717   0.57928   0.54283   0.00000  Uiso   1.00
Ni16   Ni    0.45717   0.42072   0.54283   0.00000  Uiso   1.00
Ni17   Ni    0.54283   0.57928   0.54283   0.00000  Uiso   1.00
Ni18   Ni    0.54283   0.42072   0.54283   0.00000  Uiso   1.00
Ni19   Ni    0.58566   0.57928   0.50000   0.00000  Uiso   1.00
Ni20   Ni    0.58566   0.42072   0.50000   0.00000  Uiso   1.00
Ni21   Ni    0.50000   0.57928   0.41434   0.00000  Uiso   1.00
Ni22   Ni    0.50000   0.57928   0.58566   0.00000  Uiso   1.00
Ni23   Ni    0.50000   0.42072   0.58566   0.00000  Uiso   1.00
Ni24   Ni    0.41434   0.57928   0.50000   0.00000  Uiso   1.00
Ni25   Ni    0.50000   0.42072   0.41434   0.00000  Uiso   1.00
Ni26   Ni    0.41434   0.42072   0.50000   0.00000  Uiso   1.00
Ni27   Ni    0.58566   0.50000   0.58566   0.00000  Uiso   1.00
Ni28   Ni    0.58566   0.50000   0.41434   0.00000  Uiso   1.00
Ni29   Ni    0.41434   0.50000   0.41434   0.00000  Uiso   1.00
Ni30   Ni    0.41434   0.50000   0.58566   0.00000  Uiso   1.00
Ni31   Ni    0.45717   0.50000   0.37151   0.00000  Uiso   1.00
Ni32   Ni    0.37151   0.50000   0.45717   0.00000  Uiso   1.00
Ni33   Ni    0.54283   0.50000   0.37151   0.00000  Uiso   1.00
Ni34   Ni    0.37151   0.50000   0.54283   0.00000  Uiso   1.00
Ni35   Ni    0.62849   0.50000   0.45717   0.00000  Uiso   1.00
Ni36   Ni    0.45717   0.50000   0.62849   0.00000  Uiso   1.00
Ni37   Ni    0.62849   0.50000   0.54283   0.00000  Uiso   1.00
Ni38   Ni    0.54283   0.50000   0.62849   0.00000  Uiso   1.00
Ni39   Ni    0.58566   0.57928   0.41434   0.00000  Uiso   1.00
Ni40   Ni    0.58566   0.57928   0.58566   0.00000  Uiso   1.00
Ni41   Ni    0.58566   0.42072   0.58566   0.00000  Uiso   1.00
Ni42   Ni    0.58566   0.42072   0.41434   0.00000  Uiso   1.00
Ni43   Ni    0.41434   0.57928   0.58566   0.00000  Uiso   1.00
Ni44   Ni    0.41434   0.57928   0.41434   0.00000  Uiso   1.00
Ni45   Ni    0.41434   0.42072   0.41434   0.00000  Uiso   1.00
Ni46   Ni    0.41434   0.42072   0.58566   0.00000  Uiso   1.00
Ni47   Ni    0.45717   0.57928   0.37151   0.00000  Uiso   1.00
Ni48   Ni    0.45717   0.42072   0.37151   0.00000  Uiso   1.00
Ni49   Ni    0.37151   0.57928   0.45717   0.00000  Uiso   1.00
Ni50   Ni    0.37151   0.42072   0.45717   0.00000  Uiso   1.00
Ni51   Ni    0.54283   0.57928   0.37151   0.00000  Uiso   1.00
Ni52   Ni    0.54283   0.42072   0.37151   0.00000  Uiso   1.00
Ni53   Ni    0.37151   0.57928   0.54283   0.00000  Uiso   1.00
Ni54   Ni    0.37151   0.42072   0.54283   0.00000  Uiso   1.00
Ni55   Ni    0.62849   0.57928   0.45717   0.00000  Uiso   1.00
Ni56   Ni    0.62849   0.42072   0.45717   0.00000  Uiso   1.00
Ni57   Ni    0.45717   0.57928   0.62849   0.00000  Uiso   1.00
Ni58   Ni    0.45717   0.42072   0.62849   0.00000  Uiso   1.00
Ni59   Ni    0.62849   0.57928   0.54283   0.00000  Uiso   1.00
Ni60   Ni    0.62849   0.42072   0.54283   0.00000  Uiso   1.00
Ni61   Ni    0.54283   0.57928   0.62849   0.00000  Uiso   1.00
Ni62   Ni    0.54283   0.42072   0.62849   0.00000  Uiso   1.00
Ni63   Ni    0.50000   0.65857   0.50000   0.00000  Uiso   1.00
Ni64   Ni    0.50000   0.34143   0.50000   0.00000  Uiso   1.00
Ni65   Ni    0.45717   0.65857   0.45717   0.00000  Uiso   1.00
Ni66   Ni    0.45717   0.34143   0.45717   0.00000  Uiso   1.00
Ni67   Ni    0.54283   0.65857   0.45717   0.00000  Uiso   1.00
Ni68   Ni    0.45717   0.65857   0.54283   0.00000  Uiso   1.00
Ni69   Ni    0.54283   0.34143   0.45717   0.00000  Uiso   1.00
Ni70   Ni    0.45717   0.34143   0.54283   0.00000  Uiso   1.00
Ni71   Ni    0.54283   0.65857   0.54283   0.00000  Uiso   1.00
Ni72   Ni    0.54283   0.34143   0.54283   0.00000  Uiso   1.00
Ni73   Ni    0.67132   0.50000   0.50000   0.00000  Uiso   1.00
Ni74   Ni    0.50000   0.50000   0.32868   0.00000  Uiso   1.00
Ni75   Ni    0.50000   0.50000   0.67132   0.00000  Uiso   1.00
Ni76   Ni    0.32868   0.50000   0.50000   0.00000  Uiso   1.00
Ni77   Ni    0.58566   0.65857   0.50000   0.00000  Uiso   1.00
Ni78   Ni    0.50000   0.34143   0.41434   0.00000  Uiso   1.00
Ni79   Ni    0.50000   0.65857   0.41434   0.00000  Uiso   1.00
Ni80   Ni    0.58566   0.34143   0.50000   0.00000  Uiso   1.00
Ni81   Ni    0.50000   0.34143   0.58566   0.00000  Uiso   1.00
Ni82   Ni    0.41434   0.65857   0.50000   0.00000  Uiso   1.00
Ni83   Ni    0.50000   0.65857   0.58566   0.00000  Uiso   1.00
Ni84   Ni    0.41434   0.34143   0.50000   0.00000  Uiso   1.00
Ni85   Ni    0.37151   0.50000   0.37151   0.00000  Uiso   1.00
Ni86   Ni    0.62849   0.50000   0.37151   0.00000  Uiso   1.00
Ni87   Ni    0.37151   0.50000   0.62849   0.00000  Uiso   1.00
Ni88   Ni    0.62849   0.50000   0.62849   0.00000  Uiso   1.00
Ni89   Ni    0.67132   0.57928   0.50000   0.00000  Uiso   1.00
Ni90   Ni    0.67132   0.42072   0.50000   0.00000  Uiso   1.00
Ni91   Ni    0.50000   0.57928   0.32868   0.00000  Uiso   1.00
Ni92   Ni    0.50000   0.57928   0.67132   0.00000  Uiso   1.00
Ni93   Ni    0.50000   0.42072   0.67132   0.00000  Uiso   1.00
Ni94   Ni    0.50000   0.42072   0.32868   0.00000  Uiso   1.00
Ni95   Ni    0.32868   0.57928   0.50000   0.00000  Uiso   1.00
Ni96   Ni    0.32868   0.42072   0.50000   0.00000  Uiso   1.00
Ni97   Ni    0.67132   0.50000   0.41434   0.00000  Uiso   1.00
Ni98   Ni    0.58566   0.50000   0.32868   0.00000  Uiso   1.00
Ni99   Ni    0.67132   0.50000   0.58566   0.00000  Uiso   1.00
Ni100  Ni    0.58566   0.50000   0.67132   0.00000  Uiso   1.00
Ni101  Ni    0.41434   0.50000   0.32868   0.00000  Uiso   1.00
Ni102  Ni    0.41434   0.50000   0.67132   0.00000  Uiso   1.00
Ni103  Ni    0.32868   0.50000   0.41434   0.00000  Uiso   1.00
Ni104  Ni    0.32868   0.50000   0.58566   0.00000  Uiso   1.00
Ni105  Ni    0.37151   0.57928   0.37151   0.00000  Uiso   1.00
Ni106  Ni    0.37151   0.42072   0.37151   0.00000  Uiso   1.00
Ni107  Ni    0.62849   0.57928   0.37151   0.00000  Uiso   1.00
Ni108  Ni    0.62849   0.42072   0.37151   0.00000  Uiso   1.00
Ni109  Ni    0.37151   0.57928   0.62849   0.00000  Uiso   1.00
Ni110  Ni    0.37151   0.42072   0.62849   0.00000  Uiso   1.00
Ni111  Ni    0.62849   0.57928   0.62849   0.00000  Uiso   1.00
Ni112  Ni    0.62849   0.42072   0.62849   0.00000  Uiso   1.00
Ni113  Ni    0.58566   0.65857   0.41434   0.00000  Uiso   1.00
Ni114  Ni    0.58566   0.65857   0.58566   0.00000  Uiso   1.00
Ni115  Ni    0.41434   0.65857   0.41434   0.00000  Uiso   1.00
Ni116  Ni    0.41434   0.65857   0.58566   0.00000  Uiso   1.00
Ni117  Ni    0.58566   0.34143   0.41434   0.00000  Uiso   1.00
Ni118  Ni    0.58566   0.34143   0.58566   0.00000  Uiso   1.00
Ni119  Ni    0.41434   0.34143   0.58566   0.00000  Uiso   1.00
Ni120  Ni    0.41434   0.34143   0.41434   0.00000  Uiso   1.00
Ni121  Ni    0.67132   0.42072   0.41434   0.00000  Uiso   1.00
Ni122  Ni    0.67132   0.42072   0.58566   0.00000  Uiso   1.00
Ni123  Ni    0.67132   0.57928   0.41434   0.00000  Uiso   1.00
Ni124  Ni    0.58566   0.57928   0.32868   0.00000  Uiso   1.00
Ni125  Ni    0.67132   0.57928   0.58566   0.00000  Uiso   1.00
Ni126  Ni    0.58566   0.42072   0.32868   0.00000  Uiso   1.00
Ni127  Ni    0.58566   0.57928   0.67132   0.00000  Uiso   1.00
Ni128  Ni    0.41434   0.57928   0.32868   0.00000  Uiso   1.00
Ni129  Ni    0.58566   0.42072   0.67132   0.00000  Uiso   1.00
Ni130  Ni    0.41434   0.57928   0.67132   0.00000  Uiso   1.00
Ni131  Ni    0.41434   0.42072   0.67132   0.00000  Uiso   1.00
Ni132  Ni    0.41434   0.42072   0.32868   0.00000  Uiso   1.00
Ni133  Ni    0.32868   0.57928   0.58566   0.00000  Uiso   1.00
Ni134  Ni    0.32868   0.42072   0.41434   0.00000  Uiso   1.00
Ni135  Ni    0.32868   0.57928   0.41434   0.00000  Uiso   1.00
Ni136  Ni    0.32868   0.42072   0.58566   0.00000  Uiso   1.00
Ni137  Ni    0.45717   0.65857   0.37151   0.00000  Uiso   1.00
Ni138  Ni    0.37151   0.65857   0.45717   0.00000  Uiso   1.00
Ni139  Ni    0.45717   0.34143   0.37151   0.00000  Uiso   1.00
Ni140  Ni    0.37151   0.34143   0.45717   0.00000  Uiso   1.00
Ni141  Ni    0.54283   0.65857   0.37151   0.00000  Uiso   1.00
Ni142  Ni    0.54283   0.34143   0.37151   0.00000  Uiso   1.00
Ni143  Ni    0.37151   0.65857   0.54283   0.00000  Uiso   1.00
Ni144  Ni    0.37151   0.34143   0.54283   0.00000  Uiso   1.00
Ni145  Ni    0.62849   0.65857   0.45717   0.00000  Uiso   1.00
Ni146  Ni    0.62849   0.34143   0.45717   0.00000  Uiso   1.00
Ni147  Ni    0.45717   0.65857   0.62849   0.00000  Uiso   1.00
Ni148  Ni    0.45717   0.34143   0.62849   0.00000  Uiso   1.00
Ni149  Ni    0.62849   0.65857   0.54283   0.00000  Uiso   1.00
Ni150  Ni    0.62849   0.34143   0.54283   0.00000  Uiso   1.00
Ni151  Ni    0.54283   0.65857   0.62849   0.00000  Uiso   1.00
Ni152  Ni    0.54283   0.34143   0.62849   0.00000  Uiso   1.00
Ni153  Ni    0.45717   0.50000   0.28585   0.00000  Uiso   1.00
Ni154  Ni    0.28585   0.50000   0.45717   0.00000  Uiso   1.00
Ni155  Ni    0.54283   0.50000   0.28585   0.00000  Uiso   1.00
Ni156  Ni    0.28585   0.50000   0.54283   0.00000  Uiso   1.00
Ni157  Ni    0.71415   0.50000   0.45717   0.00000  Uiso   1.00
Ni158  Ni    0.45717   0.50000   0.71415   0.00000  Uiso   1.00
Ni159  Ni    0.71415   0.50000   0.54283   0.00000  Uiso   1.00
Ni160  Ni    0.54283   0.50000   0.71415   0.00000  Uiso   1.00
Ni161  Ni    0.45717   0.57928   0.28585   0.00000  Uiso   1.00
Ni162  Ni    0.45717   0.42072   0.28585   0.00000  Uiso   1.00
Ni163  Ni    0.28585   0.57928   0.45717   0.00000  Uiso   1.00
Ni164  Ni    0.28585   0.42072   0.45717   0.00000  Uiso   1.00
Ni165  Ni    0.54283   0.42072   0.28585   0.00000  Uiso   1.00
Ni166  Ni    0.54283   0.57928   0.28585   0.00000  Uiso   1.00
Ni167  Ni    0.28585   0.57928   0.54283   0.00000  Uiso   1.00
Ni168  Ni    0.28585   0.42072   0.54283   0.00000  Uiso   1.00
Ni169  Ni    0.71415   0.57928   0.45717   0.00000  Uiso   1.00
Ni170  Ni    0.71415   0.42072   0.45717   0.00000  Uiso   1.00
Ni171  Ni    0.45717   0.42072   0.71415   0.00000  Uiso   1.00
Ni172  Ni    0.45717   0.57928   0.71415   0.00000  Uiso   1.00
Ni173  Ni    0.71415   0.42072   0.54283   0.00000  Uiso   1.00
Ni174  Ni    0.71415   0.57928   0.54283   0.00000  Uiso   1.00
Ni175  Ni    0.54283   0.57928   0.71415   0.00000  Uiso   1.00
Ni176  Ni    0.54283   0.42072   0.71415   0.00000  Uiso   1.00
Ni177  Ni    0.67132   0.65857   0.50000   0.00000  Uiso   1.00
Ni178  Ni    0.67132   0.34143   0.50000   0.00000  Uiso   1.00
Ni179  Ni    0.50000   0.65857   0.32868   0.00000  Uiso   1.00
Ni180  Ni    0.50000   0.65857   0.67132   0.00000  Uiso   1.00
Ni181  Ni    0.50000   0.34143   0.67132   0.00000  Uiso   1.00
Ni182  Ni    0.50000   0.34143   0.32868   0.00000  Uiso   1.00
Ni183  Ni    0.32868   0.34143   0.50000   0.00000  Uiso   1.00
Ni184  Ni    0.32868   0.65857   0.50000   0.00000  Uiso   1.00
Ni185  Ni    0.50000   0.73785   0.50000   0.00000  Uiso   1.00
Ni186  Ni    0.50000   0.26215   0.50000   0.00000  Uiso   1.00
Ni187  Ni    0.37151   0.34143   0.37151   0.00000  Uiso   1.00
Ni188  Ni    0.37151   0.65857   0.37151   0.00000  Uiso   1.00
Ni189  Ni    0.62849   0.65857   0.37151   0.00000  Uiso   1.00
Ni190  Ni    0.62849   0.34143   0.37151   0.00000  Uiso   1.00
Ni191  Ni    0.37151   0.65857   0.62849   0.00000  Uiso   1.00
Ni192  Ni    0.37151   0.34143   0.62849   0.00000  Uiso   1.00
Ni193  Ni    0.62849   0.65857   0.62849   0.00000  Uiso   1.00
Ni194  Ni    0.62849   0.34143   0.62849   0.00000  Uiso   1.00
Ni195  Ni    0.67132   0.50000   0.32868   0.00000  Uiso   1.00
Ni196  Ni    0.67132   0.50000   0.67132   0.00000  Uiso   1.00
Ni197  Ni    0.32868   0.50000   0.32868   0.00000  Uiso   1.00
Ni198  Ni    0.32868   0.50000   0.67132   0.00000  Uiso   1.00
Ni199  Ni    0.45717   0.73785   0.45717   0.00000  Uiso   1.00
Ni200  Ni    0.45717   0.26215   0.45717   0.00000  Uiso   1.00
Ni201  Ni    0.54283   0.73785   0.45717   0.00000  Uiso   1.00
Ni202  Ni    0.45717   0.73785   0.54283   0.00000  Uiso   1.00
Ni203  Ni    0.54283   0.26215   0.45717   0.00000  Uiso   1.00
Ni204  Ni    0.45717   0.26215   0.54283   0.00000  Uiso   1.00
Ni205  Ni    0.54283   0.73785   0.54283   0.00000  Uiso   1.00
Ni206  Ni    0.54283   0.26215   0.54283   0.00000  Uiso   1.00
Ni207  Ni    0.67132   0.65857   0.41434   0.00000  Uiso   1.00
Ni208  Ni    0.67132   0.34143   0.41434   0.00000  Uiso   1.00
Ni209  Ni    0.67132   0.65857   0.58566   0.00000  Uiso   1.00
Ni210  Ni    0.67132   0.34143   0.58566   0.00000  Uiso   1.00
Ni211  Ni    0.58566   0.65857   0.32868   0.00000  Uiso   1.00
Ni212  Ni    0.41434   0.65857   0.32868   0.00000  Uiso   1.00
Ni213  Ni    0.58566   0.65857   0.67132   0.00000  Uiso   1.00
Ni214  Ni    0.41434   0.65857   0.67132   0.00000  Uiso   1.00
Ni215  Ni    0.58566   0.34143   0.67132   0.00000  Uiso   1.00
Ni216  Ni    0.58566   0.34143   0.32868   0.00000  Uiso   1.00
Ni217  Ni    0.32868   0.34143   0.58566   0.00000  Uiso   1.00
Ni218  Ni    0.32868   0.65857   0.58566   0.00000  Uiso   1.00
Ni219  Ni    0.41434   0.34143   0.32868   0.00000  Uiso   1.00
Ni220  Ni    0.41434   0.34143   0.67132   0.00000  Uiso   1.00
Ni221  Ni    0.32868   0.34143   0.41434   0.00000  Uiso   1.00
Ni222  Ni    0.32868   0.65857   0.41434   0.00000  Uiso   1.00
Ni223  Ni    0.37151   0.50000   0.28585   0.00000  Uiso   1.00
Ni224  Ni    0.28585   0.50000   0.37151   0.00000  Uiso   1.00
Ni225  Ni    0.62849   0.50000   0.28585   0.00000  Uiso   1.00
Ni226  Ni    0.28585   0.50000   0.62849   0.00000  Uiso   1.00
Ni227  Ni    0.71415   0.50000   0.37151   0.00000  Uiso   1.00
Ni228  Ni    0.37151   0.50000   0.71415   0.00000  Uiso   1.00
Ni229  Ni    0.71415   0.50000   0.62849   0.00000  Uiso   1.00
Ni230  Ni    0.62849   0.50000   0.71415   0.00000  Uiso   1.00
Ni231  Ni    0.58566   0.73785   0.50000   0.00000  Uiso   1.00
Ni232  Ni    0.50000   0.73785   0.41434   0.00000  Uiso   1.00
Ni233  Ni    0.50000   0.73785   0.58566   0.00000  Uiso   1.00
Ni234  Ni    0.41434   0.73785   0.50000   0.00000  Uiso   1.00
Ni235  Ni    0.58566   0.26215   0.50000   0.00000  Uiso   1.00
Ni236  Ni    0.50000   0.26215   0.41434   0.00000  Uiso   1.00
Ni237  Ni    0.50000   0.26215   0.58566   0.00000  Uiso   1.00
Ni238  Ni    0.41434   0.26215   0.50000   0.00000  Uiso   1.00
Ni239  Ni    0.67132   0.42072   0.32868   0.00000  Uiso   1.00
Ni240  Ni    0.67132   0.57928   0.32868   0.00000  Uiso   1.00
Ni241  Ni    0.67132   0.57928   0.67132   0.00000  Uiso   1.00
Ni242  Ni    0.67132   0.42072   0.67132   0.00000  Uiso   1.00
Ni243  Ni    0.32868   0.57928   0.32868   0.00000  Uiso   1.00
Ni244  Ni    0.32868   0.57928   0.67132   0.00000  Uiso   1.00
Ni245  Ni    0.32868   0.42072   0.67132   0.00000  Uiso   1.00
Ni246  Ni    0.32868   0.42072   0.32868   0.00000  Uiso   1.00
Ni247  Ni    0.50000   0.50000   0.24302   0.00000  Uiso   1.00
Ni248  Ni    0.75698   0.50000   0.50000   0.00000  Uiso   1.00
Ni249  Ni    0.50000   0.50000   0.75698   0.00000  Uiso   1.00
Ni250  Ni    0.24302   0.50000   0.50000   0.00000  Uiso   1.00
Ni251  Ni    0.37151   0.57928   0.28585   0.00000  Uiso   1.00
Ni252  Ni    0.37151   0.42072   0.28585   0.00000  Uiso   1.00
Ni253  Ni    0.28585   0.42072   0.37151   0.00000  Uiso   1.00
Ni254  Ni    0.28585   0.57928   0.37151   0.00000  Uiso   1.00
Ni255  Ni    0.62849   0.57928   0.28585   0.00000  Uiso   1.00
Ni256  Ni    0.62849   0.42072   0.28585   0.00000  Uiso   1.00
Ni257  Ni    0.28585   0.57928   0.62849   0.00000  Uiso   1.00
Ni258  Ni    0.28585   0.42072   0.62849   0.00000  Uiso   1.00
Ni259  Ni    0.71415   0.42072   0.37151   0.00000  Uiso   1.00
Ni260  Ni    0.71415   0.57928   0.37151   0.00000  Uiso   1.00
Ni261  Ni    0.37151   0.42072   0.71415   0.00000  Uiso   1.00
Ni262  Ni    0.37151   0.57928   0.71415   0.00000  Uiso   1.00
Ni263  Ni    0.71415   0.57928   0.62849   0.00000  Uiso   1.00
Ni264  Ni    0.71415   0.42072   0.62849   0.00000  Uiso   1.00
Ni265  Ni    0.62849   0.57928   0.71415   0.00000  Uiso   1.00
Ni266  Ni    0.62849   0.42072   0.71415   0.00000  Uiso   1.00
Ni267  Ni    0.58566   0.73785   0.41434   0.00000  Uiso   1.00
Ni268  Ni    0.58566   0.73785   0.58566   0.00000  Uiso   1.00
Ni269  Ni    0.58566   0.26215   0.41434   0.00000  Uiso   1.00
Ni270  Ni    0.41434   0.73785   0.41434   0.00000  Uiso   1.00
Ni271  Ni    0.41434   0.73785   0.58566   0.00000  Uiso   1.00
Ni272  Ni    0.58566   0.26215   0.58566   0.00000  Uiso   1.00
Ni273  Ni    0.41434   0.26215   0.41434   0.00000  Uiso   1.00
Ni274  Ni    0.41434   0.26215   0.58566   0.00000  Uiso   1.00
Ni275  Ni    0.50000   0.57928   0.24302   0.00000  Uiso   1.00
Ni276  Ni    0.75698   0.57928   0.50000   0.00000  Uiso   1.00
Ni277  Ni    0.75698   0.42072   0.50000   0.00000  Uiso   1.00
Ni278  Ni    0.50000   0.42072   0.24302   0.00000  Uiso   1.00
Ni279  Ni    0.50000   0.57928   0.75698   0.00000  Uiso   1.00
Ni280  Ni    0.50000   0.42072   0.75698   0.00000  Uiso   1.00
Ni281  Ni    0.24302   0.57928   0.50000   0.00000  Uiso   1.00
Ni282  Ni    0.24302   0.42072   0.50000   0.00000  Uiso   1.00
Ni283  Ni    0.45717   0.65857   0.28585   0.00000  Uiso   1.00
Ni284  Ni    0.45717   0.34143   0.28585   0.00000  Uiso   1.00
Ni285  Ni    0.28585   0.34143   0.45717   0.00000  Uiso   1.00
Ni286  Ni    0.28585   0.65857   0.45717   0.00000  Uiso   1.00
Ni287  Ni    0.54283   0.65857   0.28585   0.00000  Uiso   1.00
Ni288  Ni    0.54283   0.34143   0.28585   0.00000  Uiso   1.00
Ni289  Ni    0.28585   0.65857   0.54283   0.00000  Uiso   1.00
Ni290  Ni    0.28585   0.34143   0.54283   0.00000  Uiso   1.00
Ni291  Ni    0.71415   0.65857   0.45717   0.00000  Uiso   1.00
Ni292  Ni    0.71415   0.34143   0.45717   0.00000  Uiso   1.00
Ni293  Ni    0.45717   0.34143   0.71415   0.00000  Uiso   1.00
Ni294  Ni    0.45717   0.65857   0.71415   0.00000  Uiso   1.00
Ni295  Ni    0.71415   0.65857   0.54283   0.00000  Uiso   1.00
Ni296  Ni    0.54283   0.34143   0.71415   0.00000  Uiso   1.00
Ni297  Ni    0.71415   0.34143   0.54283   0.00000  Uiso   1.00
Ni298  Ni    0.54283   0.65857   0.71415   0.00000  Uiso   1.00
Ni299  Ni    0.75698   0.50000   0.41434   0.00000  Uiso   1.00
Ni300  Ni    0.58566   0.50000   0.24302   0.00000  Uiso   1.00
Ni301  Ni    0.41434   0.50000   0.24302   0.00000  Uiso   1.00
Ni302  Ni    0.75698   0.50000   0.58566   0.00000  Uiso   1.00
Ni303  Ni    0.58566   0.50000   0.75698   0.00000  Uiso   1.00
Ni304  Ni    0.24302   0.50000   0.41434   0.00000  Uiso   1.00
Ni305  Ni    0.24302   0.50000   0.58566   0.00000  Uiso   1.00
Ni306  Ni    0.41434   0.50000   0.75698   0.00000  Uiso   1.00
Ni307  Ni    0.45717   0.73785   0.37151   0.00000  Uiso   1.00
Ni308  Ni    0.37151   0.73785   0.45717   0.00000  Uiso   1.00
Ni309  Ni    0.45717   0.26215   0.37151   0.00000  Uiso   1.00
Ni310  Ni    0.37151   0.26215   0.45717   0.00000  Uiso   1.00
Ni311  Ni    0.54283   0.73785   0.37151   0.00000  Uiso   1.00
Ni312  Ni    0.37151   0.73785   0.54283   0.00000  Uiso   1.00
Ni313  Ni    0.54283   0.26215   0.37151   0.00000  Uiso   1.00
Ni314  Ni    0.37151   0.26215   0.54283   0.00000  Uiso   1.00
Ni315  Ni    0.62849   0.73785   0.45717   0.00000  Uiso   1.00
Ni316  Ni    0.62849   0.26215   0.45717   0.00000  Uiso   1.00
Ni317  Ni    0.45717   0.73785   0.62849   0.00000  Uiso   1.00
Ni318  Ni    0.45717   0.26215   0.62849   0.00000  Uiso   1.00
Ni319  Ni    0.62849   0.73785   0.54283   0.00000  Uiso   1.00
Ni320  Ni    0.54283   0.73785   0.62849   0.00000  Uiso   1.00
Ni321  Ni    0.62849   0.26215   0.54283   0.00000  Uiso   1.00
Ni322  Ni    0.54283   0.26215   0.62849   0.00000  Uiso   1.00
Ni323  Ni    0.58566   0.57928   0.24302   0.00000  Uiso   1.00
Ni324  Ni    0.75698   0.57928   0.58566   0.00000  Uiso   1.00
Ni325  Ni    0.75698   0.42072   0.41434   0.00000  Uiso   1.00
Ni326  Ni    0.58566   0.42072   0.24302   0.00000  Uiso   1.00
Ni327  Ni    0.41434   0.57928   0.24302   0.00000  Uiso   1.00
Ni328  Ni    0.75698   0.57928   0.41434   0.00000  Uiso   1.00
Ni329  Ni    0.75698   0.42072   0.58566   0.00000  Uiso   1.00
Ni330  Ni    0.41434   0.42072   0.24302   0.00000  Uiso   1.00
Ni331  Ni    0.58566   0.57928   0.75698   0.00000  Uiso   1.00
Ni332  Ni    0.41434   0.57928   0.75698   0.00000  Uiso   1.00
Ni333  Ni    0.58566   0.42072   0.75698   0.00000  Uiso   1.00
Ni334  Ni    0.24302   0.57928   0.41434   0.00000  Uiso   1.00
Ni335  Ni    0.24302   0.57928   0.58566   0.00000  Uiso   1.00
Ni336  Ni    0.24302   0.42072   0.41434   0.00000  Uiso   1.00
Ni337  Ni    0.24302   0.42072   0.58566   0.00000  Uiso   1.00
Ni338  Ni    0.41434   0.42072   0.75698   0.00000  Uiso   1.00
Ni339  Ni    0.67132   0.65857   0.32868   0.00000  Uiso   1.00
Ni340  Ni    0.67132   0.34143   0.32868   0.00000  Uiso   1.00
Ni341  Ni    0.67132   0.65857   0.67132   0.00000  Uiso   1.00
Ni342  Ni    0.67132   0.34143   0.67132   0.00000  Uiso   1.00
Ni343  Ni    0.32868   0.65857   0.32868   0.00000  Uiso   1.00
Ni344  Ni    0.32868   0.34143   0.32868   0.00000  Uiso   1.00
Ni345  Ni    0.32868   0.65857   0.67132   0.00000  Uiso   1.00
Ni346  Ni    0.32868   0.34143   0.67132   0.00000  Uiso   1.00
Ni347  Ni    0.67132   0.73785   0.50000   0.00000  Uiso   1.00
Ni348  Ni    0.50000   0.73785   0.32868   0.00000  Uiso   1.00
Ni349  Ni    0.67132   0.26215   0.50000   0.00000  Uiso   1.00
Ni350  Ni    0.50000   0.73785   0.67132   0.00000  Uiso   1.00
Ni351  Ni    0.32868   0.73785   0.50000   0.00000  Uiso   1.00
Ni352  Ni    0.50000   0.26215   0.32868   0.00000  Uiso   1.00
Ni353  Ni    0.50000   0.26215   0.67132   0.00000  Uiso   1.00
Ni354  Ni    0.32868   0.26215   0.50000   0.00000  Uiso   1.00
Ni355  Ni    0.37151   0.65857   0.28585   0.00000  Uiso   1.00
Ni356  Ni    0.37151   0.34143   0.28585   0.00000  Uiso   1.00
Ni357  Ni    0.28585   0.34143   0.37151   0.00000  Uiso   1.00
Ni358  Ni    0.28585   0.65857   0.37151   0.00000  Uiso   1.00
Ni359  Ni    0.62849   0.65857   0.28585   0.00000  Uiso   1.00
Ni360  Ni    0.62849   0.34143   0.28585   0.00000  Uiso   1.00
Ni361  Ni    0.28585   0.34143   0.62849   0.00000  Uiso   1.00
Ni362  Ni    0.28585   0.65857   0.62849   0.00000  Uiso   1.00
Ni363  Ni    0.71415   0.65857   0.37151   0.00000  Uiso   1.00
Ni364  Ni    0.71415   0.34143   0.37151   0.00000  Uiso   1.00
Ni365  Ni    0.37151   0.34143   0.71415   0.00000  Uiso   1.00
Ni366  Ni    0.37151   0.65857   0.71415   0.00000  Uiso   1.00
Ni367  Ni    0.71415   0.65857   0.62849   0.00000  Uiso   1.00
Ni368  Ni    0.62849   0.34143   0.71415   0.00000  Uiso   1.00
Ni369  Ni    0.62849   0.65857   0.71415   0.00000  Uiso   1.00
Ni370  Ni    0.71415   0.34143   0.62849   0.00000  Uiso   1.00
Ni371  Ni    0.37151   0.73785   0.37151   0.00000  Uiso   1.00
Ni372  Ni    0.37151   0.26215   0.37151   0.00000  Uiso   1.00
Ni373  Ni    0.62849   0.73785   0.37151   0.00000  Uiso   1.00
Ni374  Ni    0.62849   0.26215   0.37151   0.00000  Uiso   1.00
Ni375  Ni    0.37151   0.73785   0.62849   0.00000  Uiso   1.00
Ni376  Ni    0.37151   0.26215   0.62849   0.00000  Uiso   1.00
Ni377  Ni    0.62849   0.73785   0.62849   0.00000  Uiso   1.00
Ni378  Ni    0.62849   0.26215   0.62849   0.00000  Uiso   1.00
Ni379  Ni    0.50000   0.34143   0.24302   0.00000  Uiso   1.00
Ni380  Ni    0.75698   0.65857   0.50000   0.00000  Uiso   1.00
Ni381  Ni    0.50000   0.65857   0.24302   0.00000  Uiso   1.00
Ni382  Ni    0.75698   0.34143   0.50000   0.00000  Uiso   1.00
Ni383  Ni    0.50000   0.65857   0.75698   0.00000  Uiso   1.00
Ni384  Ni    0.24302   0.34143   0.50000   0.00000  Uiso   1.00
Ni385  Ni    0.24302   0.65857   0.50000   0.00000  Uiso   1.00
Ni386  Ni    0.50000   0.34143   0.75698   0.00000  Uiso   1.00
Ni387  Ni    0.28585   0.50000   0.28585   0.00000  Uiso   1.00
Ni388  Ni    0.45717   0.50000   0.20019   0.00000  Uiso   1.00
Ni389  Ni    0.20019   0.50000   0.45717   0.00000  Uiso   1.00
Ni390  Ni    0.54283   0.50000   0.20019   0.00000  Uiso   1.00
Ni391  Ni    0.20019   0.50000   0.54283   0.00000  Uiso   1.00
Ni392  Ni    0.71415   0.50000   0.28585   0.00000  Uiso   1.00
Ni393  Ni    0.28585   0.50000   0.71415   0.00000  Uiso   1.00
Ni394  Ni    0.45717   0.50000   0.79981   0.00000  Uiso   1.00
Ni395  Ni    0.79981   0.50000   0.45717   0.00000  Uiso   1.00
Ni396  Ni    0.54283   0.50000   0.79981   0.00000  Uiso   1.00
Ni397  Ni    0.79981   0.50000   0.54283   0.00000  Uiso   1.00
Ni398  Ni    0.71415   0.50000   0.71415   0.00000  Uiso   1.00
Ni399  Ni    0.67132   0.73785   0.41434   0.00000  Uiso   1.00
Ni400  Ni    0.67132   0.73785   0.58566   0.00000  Uiso   1.00
Ni401  Ni    0.58566   0.73785   0.67132   0.00000  Uiso   1.00
Ni402  Ni    0.58566   0.73785   0.32868   0.00000  Uiso   1.00
Ni403  Ni    0.41434   0.73785   0.32868   0.00000  Uiso   1.00
Ni404  Ni    0.67132   0.26215   0.58566   0.00000  Uiso   1.00
Ni405  Ni    0.67132   0.26215   0.41434   0.00000  Uiso   1.00
Ni406  Ni    0.41434   0.73785   0.67132   0.00000  Uiso   1.00
Ni407  Ni    0.32868   0.73785   0.58566   0.00000  Uiso   1.00
Ni408  Ni    0.58566   0.26215   0.32868   0.00000  Uiso   1.00
Ni409  Ni    0.58566   0.26215   0.67132   0.00000  Uiso   1.00
Ni410  Ni    0.32868   0.73785   0.41434   0.00000  Uiso   1.00
Ni411  Ni    0.41434   0.26215   0.67132   0.00000  Uiso   1.00
Ni412  Ni    0.41434   0.26215   0.32868   0.00000  Uiso   1.00
Ni413  Ni    0.32868   0.26215   0.58566   0.00000  Uiso   1.00
Ni414  Ni    0.32868   0.26215   0.41434   0.00000  Uiso   1.00
Ni415  Ni    0.67132   0.50000   0.24302   0.00000  Uiso   1.00
Ni416  Ni    0.75698   0.50000   0.32868   0.00000  Uiso   1.00
Ni417  Ni    0.67132   0.50000   0.75698   0.00000  Uiso   1.00
Ni418  Ni    0.75698   0.50000   0.67132   0.00000  Uiso   1.00
Ni419  Ni    0.32868   0.50000   0.24302   0.00000  Uiso   1.00
Ni420  Ni    0.24302   0.50000   0.67132   0.00000  Uiso   1.00
Ni421  Ni    0.24302   0.50000   0.32868   0.00000  Uiso   1.00
Ni422  Ni    0.32868   0.50000   0.75698   0.00000  Uiso   1.00
Ni423  Ni    0.28585   0.57928   0.28585   0.00000  Uiso   1.00
Ni424  Ni    0.28585   0.42072   0.28585   0.00000  Uiso   1.00
Ni425  Ni    0.45717   0.57928   0.20019   0.00000  Uiso   1.00
Ni426  Ni    0.45717   0.42072   0.20019   0.00000  Uiso   1.00
Ni427  Ni    0.20019   0.57928   0.45717   0.00000  Uiso   1.00
Ni428  Ni    0.20019   0.42072   0.45717   0.00000  Uiso   1.00
Ni429  Ni    0.54283   0.42072   0.20019   0.00000  Uiso   1.00
Ni430  Ni    0.54283   0.57928   0.20019   0.00000  Uiso   1.00
Ni431  Ni    0.20019   0.57928   0.54283   0.00000  Uiso   1.00
Ni432  Ni    0.20019   0.42072   0.54283   0.00000  Uiso   1.00
Ni433  Ni    0.71415   0.57928   0.28585   0.00000  Uiso   1.00
Ni434  Ni    0.71415   0.42072   0.28585   0.00000  Uiso   1.00
Ni435  Ni    0.28585   0.42072   0.71415   0.00000  Uiso   1.00
Ni436  Ni    0.28585   0.57928   0.71415   0.00000  Uiso   1.00
Ni437  Ni    0.45717   0.57928   0.79981   0.00000  Uiso   1.00
Ni438  Ni    0.45717   0.42072   0.79981   0.00000  Uiso   1.00
Ni439  Ni    0.79981   0.42072   0.45717   0.00000  Uiso   1.00
Ni440  Ni    0.79981   0.57928   0.45717   0.00000  Uiso   1.00
Ni441  Ni    0.54283   0.57928   0.79981   0.00000  Uiso   1.00
Ni442  Ni    0.54283   0.42072   0.79981   0.00000  Uiso   1.00
Ni443  Ni    0.79981   0.57928   0.54283   0.00000  Uiso   1.00
Ni444  Ni    0.79981   0.42072   0.54283   0.00000  Uiso   1.00
Ni445  Ni    0.71415   0.57928   0.71415   0.00000  Uiso   1.00
Ni446  Ni    0.71415   0.42072   0.71415   0.00000  Uiso   1.00
Ni447  Ni    0.58566   0.65857   0.24302   0.00000  Uiso   1.00
Ni448  Ni    0.75698   0.65857   0.58566   0.00000  Uiso   1.00
Ni449  Ni    0.75698   0.65857   0.41434   0.00000  Uiso   1.00
Ni450  Ni    0.41434   0.65857   0.24302   0.00000  Uiso   1.00
Ni451  Ni    0.58566   0.34143   0.24302   0.00000  Uiso   1.00
Ni452  Ni    0.41434   0.34143   0.24302   0.00000  Uiso   1.00
Ni453  Ni    0.75698   0.34143   0.58566   0.00000  Uiso   1.00
Ni454  Ni    0.58566   0.65857   0.75698   0.00000  Uiso   1.00
Ni455  Ni    0.75698   0.34143   0.41434   0.00000  Uiso   1.00
Ni456  Ni    0.41434   0.65857   0.75698   0.00000  Uiso   1.00
Ni457  Ni    0.58566   0.34143   0.75698   0.00000  Uiso   1.00
Ni458  Ni    0.24302   0.65857   0.41434   0.00000  Uiso   1.00
Ni459  Ni    0.24302   0.65857   0.58566   0.00000  Uiso   1.00
Ni460  Ni    0.24302   0.34143   0.58566   0.00000  Uiso   1.00
Ni461  Ni    0.24302   0.34143   0.41434   0.00000  Uiso   1.00
Ni462  Ni    0.41434   0.34143   0.75698   0.00000  Uiso   1.00
Ni463  Ni    0.50000   0.18287   0.50000   0.00000  Uiso   1.00
Ni464  Ni    0.50000   0.81713   0.50000   0.00000  Uiso   1.00
Ni465  Ni    0.67132   0.57928   0.24302   0.00000  Uiso   1.00
Ni466  Ni    0.67132   0.42072   0.24302   0.00000  Uiso   1.00
Ni467  Ni    0.67132   0.57928   0.75698   0.00000  Uiso   1.00
Ni468  Ni    0.75698   0.57928   0.67132   0.00000  Uiso   1.00
Ni469  Ni    0.75698   0.57928   0.32868   0.00000  Uiso   1.00
Ni470  Ni    0.75698   0.42072   0.32868   0.00000  Uiso   1.00
Ni471  Ni    0.67132   0.42072   0.75698   0.00000  Uiso   1.00
Ni472  Ni    0.75698   0.42072   0.67132   0.00000  Uiso   1.00
Ni473  Ni    0.32868   0.57928   0.24302   0.00000  Uiso   1.00
Ni474  Ni    0.32868   0.42072   0.24302   0.00000  Uiso   1.00
Ni475  Ni    0.24302   0.57928   0.67132   0.00000  Uiso   1.00
Ni476  Ni    0.24302   0.57928   0.32868   0.00000  Uiso   1.00
Ni477  Ni    0.24302   0.42072   0.67132   0.00000  Uiso   1.00
Ni478  Ni    0.24302   0.42072   0.32868   0.00000  Uiso   1.00
Ni479  Ni    0.32868   0.42072   0.75698   0.00000  Uiso   1.00
Ni480  Ni    0.32868   0.57928   0.75698   0.00000  Uiso   1.00
Ni481  Ni    0.45717   0.18287   0.45717   0.00000  Uiso   1.00
Ni482  Ni    0.45717   0.81713   0.45717   0.00000  Uiso   1.00
Ni483  Ni    0.54283   0.81713   0.45717   0.00000  Uiso   1.00
Ni484  Ni    0.54283   0.18287   0.45717   0.00000  Uiso   1.00
Ni485  Ni    0.45717   0.18287   0.54283   0.00000  Uiso   1.00
Ni486  Ni    0.45717   0.81713   0.54283   0.00000  Uiso   1.00
Ni487  Ni    0.54283   0.81713   0.54283   0.00000  Uiso   1.00
Ni488  Ni    0.54283   0.18287   0.54283   0.00000  Uiso   1.00
Ni489  Ni    0.45717   0.73785   0.28585   0.00000  Uiso   1.00
Ni490  Ni    0.45717   0.26215   0.28585   0.00000  Uiso   1.00
Ni491  Ni    0.28585   0.73785   0.45717   0.00000  Uiso   1.00
Ni492  Ni    0.28585   0.26215   0.45717   0.00000  Uiso   1.00
Ni493  Ni    0.54283   0.73785   0.28585   0.00000  Uiso   1.00
Ni494  Ni    0.54283   0.26215   0.28585   0.00000  Uiso   1.00
Ni495  Ni    0.28585   0.73785   0.54283   0.00000  Uiso   1.00
Ni496  Ni    0.28585   0.26215   0.54283   0.00000  Uiso   1.00
Ni497  Ni    0.71415   0.73785   0.45717   0.00000  Uiso   1.00
Ni498  Ni    0.45717   0.73785   0.71415   0.00000  Uiso   1.00
Ni499  Ni    0.45717   0.26215   0.71415   0.00000  Uiso   1.00
Ni500  Ni    0.71415   0.26215   0.45717   0.00000  Uiso   1.00
Ni501  Ni    0.71415   0.73785   0.54283   0.00000  Uiso   1.00
Ni502  Ni    0.54283   0.26215   0.71415   0.00000  Uiso   1.00
Ni503  Ni    0.54283   0.73785   0.71415   0.00000  Uiso   1.00
Ni504  Ni    0.71415   0.26215   0.54283   0.00000  Uiso   1.00
Ni505  Ni    0.37151   0.50000   0.20019   0.00000  Uiso   1.00
Ni506  Ni    0.20019   0.50000   0.37151   0.00000  Uiso   1.00
Ni507  Ni    0.62849   0.50000   0.20019   0.00000  Uiso   1.00
Ni508  Ni    0.20019   0.50000   0.62849   0.00000  Uiso   1.00
Ni509  Ni    0.79981   0.50000   0.37151   0.00000  Uiso   1.00
Ni510  Ni    0.37151   0.50000   0.79981   0.00000  Uiso   1.00
Ni511  Ni    0.62849   0.50000   0.79981   0.00000  Uiso   1.00
Ni512  Ni    0.79981   0.50000   0.62849   0.00000  Uiso   1.00
Ni513  Ni    0.58566   0.81713   0.50000   0.00000  Uiso   1.00
Ni514  Ni    0.50000   0.18287   0.41434   0.00000  Uiso   1.00
Ni515  Ni    0.58566   0.18287   0.50000   0.00000  Uiso   1.00
Ni516  Ni    0.50000   0.18287   0.58566   0.00000  Uiso   1.00
Ni517  Ni    0.50000   0.81713   0.41434   0.00000  Uiso   1.00
Ni518  Ni    0.50000   0.81713   0.58566   0.00000  Uiso   1.00
Ni519  Ni    0.41434   0.81713   0.50000   0.00000  Uiso   1.00
Ni520  Ni    0.41434   0.18287   0.50000   0.00000  Uiso   1.00
Pt521  Pt    0.54283   0.46036   0.50000   0.00000  Uiso   1.00
Pt522  Pt    0.50000   0.46036   0.54283   0.00000  Uiso   1.00
Pt523  Pt    0.54283   0.53964   0.50000   0.00000  Uiso   1.00
Pt524  Pt    0.50000   0.53964   0.54283   0.00000  Uiso   1.00
Pt525  Pt    0.50000   0.46036   0.45717   0.00000  Uiso   1.00
Pt526  Pt    0.45717   0.46036   0.50000   0.00000  Uiso   1.00
Pt527  Pt    0.50000   0.53964   0.45717   0.00000  Uiso   1.00
Pt528  Pt    0.45717   0.53964   0.50000   0.00000  Uiso   1.00
Pt529  Pt    0.58566   0.46036   0.54283   0.00000  Uiso   1.00
Pt530  Pt    0.54283   0.46036   0.41434   0.00000  Uiso   1.00
Pt531  Pt    0.54283   0.46036   0.58566   0.00000  Uiso   1.00
Pt532  Pt    0.41434   0.46036   0.54283   0.00000  Uiso   1.00
Pt533  Pt    0.54283   0.53964   0.41434   0.00000  Uiso   1.00
Pt534  Pt    0.54283   0.53964   0.58566   0.00000  Uiso   1.00
Pt535  Pt    0.58566   0.53964   0.54283   0.00000  Uiso   1.00
Pt536  Pt    0.41434   0.53964   0.54283   0.00000  Uiso   1.00
Pt537  Pt    0.58566   0.46036   0.45717   0.00000  Uiso   1.00
Pt538  Pt    0.45717   0.46036   0.41434   0.00000  Uiso   1.00
Pt539  Pt    0.45717   0.46036   0.58566   0.00000  Uiso   1.00
Pt540  Pt    0.41434   0.46036   0.45717   0.00000  Uiso   1.00
Pt541  Pt    0.58566   0.53964   0.45717   0.00000  Uiso   1.00
Pt542  Pt    0.45717   0.53964   0.58566   0.00000  Uiso   1.00
Pt543  Pt    0.45717   0.53964   0.41434   0.00000  Uiso   1.00
Pt544  Pt    0.41434   0.53964   0.45717   0.00000  Uiso   1.00
Pt545  Pt    0.54283   0.38108   0.50000   0.00000  Uiso   1.00
Pt546  Pt    0.50000   0.38108   0.54283   0.00000  Uiso   1.00
Pt547  Pt    0.50000   0.38108   0.45717   0.00000  Uiso   1.00
Pt548  Pt    0.45717   0.38108   0.50000   0.00000  Uiso   1.00
Pt549  Pt    0.54283   0.61892   0.50000   0.00000  Uiso   1.00
Pt550  Pt    0.50000   0.61892   0.54283   0.00000  Uiso   1.00
Pt551  Pt    0.50000   0.61892   0.45717   0.00000  Uiso   1.00
Pt552  Pt    0.45717   0.61892   0.50000   0.00000  Uiso   1.00
Pt553  Pt    0.62849   0.46036   0.50000   0.00000  Uiso   1.00
Pt554  Pt    0.50000   0.46036   0.62849   0.00000  Uiso   1.00
Pt555  Pt    0.62849   0.53964   0.50000   0.00000  Uiso   1.00
Pt556  Pt    0.50000   0.53964   0.62849   0.00000  Uiso   1.00
Pt557  Pt    0.50000   0.46036   0.37151   0.00000  Uiso   1.00
Pt558  Pt    0.37151   0.46036   0.50000   0.00000  Uiso   1.00
Pt559  Pt    0.50000   0.53964   0.37151   0.00000  Uiso   1.00
Pt560  Pt    0.37151   0.53964   0.50000   0.00000  Uiso   1.00
Pt561  Pt    0.58566   0.38108   0.54283   0.00000  Uiso   1.00
Pt562  Pt    0.54283   0.38108   0.58566   0.00000  Uiso   1.00
Pt563  Pt    0.54283   0.38108   0.41434   0.00000  Uiso   1.00
Pt564  Pt    0.41434   0.38108   0.54283   0.00000  Uiso   1.00
Pt565  Pt    0.58566   0.38108   0.45717   0.00000  Uiso   1.00
Pt566  Pt    0.45717   0.38108   0.41434   0.00000  Uiso   1.00
Pt567  Pt    0.45717   0.38108   0.58566   0.00000  Uiso   1.00
Pt568  Pt    0.41434   0.38108   0.45717   0.00000  Uiso   1.00
Pt569  Pt    0.54283   0.61892   0.41434   0.00000  Uiso   1.00
Pt570  Pt    0.58566   0.61892   0.54283   0.00000  Uiso   1.00
Pt571  Pt    0.54283   0.61892   0.58566   0.00000  Uiso   1.00
Pt572  Pt    0.41434   0.61892   0.54283   0.00000  Uiso   1.00
Pt573  Pt    0.58566   0.61892   0.45717   0.00000  Uiso   1.00
Pt574  Pt    0.45717   0.61892   0.58566   0.00000  Uiso   1.00
Pt575  Pt    0.45717   0.61892   0.41434   0.00000  Uiso   1.00
Pt576  Pt    0.41434   0.61892   0.45717   0.00000  Uiso   1.00
Pt577  Pt    0.62849   0.46036   0.58566   0.00000  Uiso   1.00
Pt578  Pt    0.62849   0.46036   0.41434   0.00000  Uiso   1.00
Pt579  Pt    0.58566   0.46036   0.62849   0.00000  Uiso   1.00
Pt580  Pt    0.41434   0.46036   0.62849   0.00000  Uiso   1.00
Pt581  Pt    0.62849   0.53964   0.41434   0.00000  Uiso   1.00
Pt582  Pt    0.62849   0.53964   0.58566   0.00000  Uiso   1.00
Pt583  Pt    0.58566   0.53964   0.62849   0.00000  Uiso   1.00
Pt584  Pt    0.41434   0.53964   0.62849   0.00000  Uiso   1.00
Pt585  Pt    0.58566   0.46036   0.37151   0.00000  Uiso   1.00
Pt586  Pt    0.41434   0.46036   0.37151   0.00000  Uiso   1.00
Pt587  Pt    0.37151   0.46036   0.41434   0.00000  Uiso   1.00
Pt588  Pt    0.37151   0.46036   0.58566   0.00000  Uiso   1.00
Pt589  Pt    0.58566   0.53964   0.37151   0.00000  Uiso   1.00
Pt590  Pt    0.41434   0.53964   0.37151   0.00000  Uiso   1.00
Pt591  Pt    0.37151   0.53964   0.58566   0.00000  Uiso   1.00
Pt592  Pt    0.37151   0.53964   0.41434   0.00000  Uiso   1.00
Pt593  Pt    0.62849   0.38108   0.50000   0.00000  Uiso   1.00
Pt594  Pt    0.50000   0.38108   0.62849   0.00000  Uiso   1.00
Pt595  Pt    0.62849   0.61892   0.50000   0.00000  Uiso   1.00
Pt596  Pt    0.50000   0.61892   0.62849   0.00000  Uiso   1.00
Pt597  Pt    0.50000   0.38108   0.37151   0.00000  Uiso   1.00
Pt598  Pt    0.37151   0.38108   0.50000   0.00000  Uiso   1.00
Pt599  Pt    0.50000   0.61892   0.37151   0.00000  Uiso   1.00
Pt600  Pt    0.37151   0.61892   0.50000   0.00000  Uiso   1.00
Pt601  Pt    0.67132   0.46036   0.54283   0.00000  Uiso   1.00
Pt602  Pt    0.54283   0.46036   0.32868   0.00000  Uiso   1.00
Pt603  Pt    0.54283   0.46036   0.67132   0.00000  Uiso   1.00
Pt604  Pt    0.32868   0.46036   0.54283   0.00000  Uiso   1.00
Pt605  Pt    0.67132   0.53964   0.54283   0.00000  Uiso   1.00
Pt606  Pt    0.54283   0.53964   0.32868   0.00000  Uiso   1.00
Pt607  Pt    0.54283   0.53964   0.67132   0.00000  Uiso   1.00
Pt608  Pt    0.32868   0.53964   0.54283   0.00000  Uiso   1.00
Pt609  Pt    0.67132   0.46036   0.45717   0.00000  Uiso   1.00
Pt610  Pt    0.45717   0.46036   0.67132   0.00000  Uiso   1.00
Pt611  Pt    0.45717   0.46036   0.32868   0.00000  Uiso   1.00
Pt612  Pt    0.32868   0.46036   0.45717   0.00000  Uiso   1.00
Pt613  Pt    0.67132   0.53964   0.45717   0.00000  Uiso   1.00
Pt614  Pt    0.45717   0.53964   0.32868   0.00000  Uiso   1.00
Pt615  Pt    0.45717   0.53964   0.67132   0.00000  Uiso   1.00
Pt616  Pt    0.32868   0.53964   0.45717   0.00000  Uiso   1.00
Pt617  Pt    0.62849   0.38108   0.58566   0.00000  Uiso   1.00
Pt618  Pt    0.62849   0.38108   0.41434   0.00000  Uiso   1.00
Pt619  Pt    0.58566   0.38108   0.62849   0.00000  Uiso   1.00
Pt620  Pt    0.41434   0.38108   0.62849   0.00000  Uiso   1.00
Pt621  Pt    0.62849   0.61892   0.41434   0.00000  Uiso   1.00
Pt622  Pt    0.62849   0.61892   0.58566   0.00000  Uiso   1.00
Pt623  Pt    0.58566   0.61892   0.62849   0.00000  Uiso   1.00
Pt624  Pt    0.41434   0.61892   0.62849   0.00000  Uiso   1.00
Pt625  Pt    0.58566   0.38108   0.37151   0.00000  Uiso   1.00
Pt626  Pt    0.37151   0.38108   0.41434   0.00000  Uiso   1.00
Pt627  Pt    0.41434   0.38108   0.37151   0.00000  Uiso   1.00
Pt628  Pt    0.37151   0.38108   0.58566   0.00000  Uiso   1.00
Pt629  Pt    0.58566   0.61892   0.37151   0.00000  Uiso   1.00
Pt630  Pt    0.41434   0.61892   0.37151   0.00000  Uiso   1.00
Pt631  Pt    0.37151   0.61892   0.41434   0.00000  Uiso   1.00
Pt632  Pt    0.37151   0.61892   0.58566   0.00000  Uiso   1.00
Pt633  Pt    0.54283   0.30179   0.50000   0.00000  Uiso   1.00
Pt634  Pt    0.50000   0.30179   0.54283   0.00000  Uiso   1.00
Pt635  Pt    0.50000   0.30179   0.45717   0.00000  Uiso   1.00
Pt636  Pt    0.45717   0.30179   0.50000   0.00000  Uiso   1.00
Pt637  Pt    0.54283   0.69821   0.50000   0.00000  Uiso   1.00
Pt638  Pt    0.50000   0.69821   0.54283   0.00000  Uiso   1.00
Pt639  Pt    0.50000   0.69821   0.45717   0.00000  Uiso   1.00
Pt640  Pt    0.45717   0.69821   0.50000   0.00000  Uiso   1.00
Pt641  Pt    0.67132   0.38108   0.54283   0.00000  Uiso   1.00
Pt642  Pt    0.54283   0.38108   0.67132   0.00000  Uiso   1.00
Pt643  Pt    0.54283   0.38108   0.32868   0.00000  Uiso   1.00
Pt644  Pt    0.32868   0.38108   0.54283   0.00000  Uiso   1.00
Pt645  Pt    0.67132   0.38108   0.45717   0.00000  Uiso   1.00
Pt646  Pt    0.45717   0.38108   0.32868   0.00000  Uiso   1.00
Pt647  Pt    0.45717   0.38108   0.67132   0.00000  Uiso   1.00
Pt648  Pt    0.32868   0.38108   0.45717   0.00000  Uiso   1.00
Pt649  Pt    0.67132   0.61892   0.54283   0.00000  Uiso   1.00
Pt650  Pt    0.54283   0.61892   0.32868   0.00000  Uiso   1.00
Pt651  Pt    0.54283   0.61892   0.67132   0.00000  Uiso   1.00
Pt652  Pt    0.32868   0.61892   0.54283   0.00000  Uiso   1.00
Pt653  Pt    0.67132   0.61892   0.45717   0.00000  Uiso   1.00
Pt654  Pt    0.45717   0.61892   0.32868   0.00000  Uiso   1.00
Pt655  Pt    0.45717   0.61892   0.67132   0.00000  Uiso   1.00
Pt656  Pt    0.32868   0.61892   0.45717   0.00000  Uiso   1.00
Pt657  Pt    0.71415   0.46036   0.50000   0.00000  Uiso   1.00
Pt658  Pt    0.50000   0.46036   0.71415   0.00000  Uiso   1.00
Pt659  Pt    0.71415   0.53964   0.50000   0.00000  Uiso   1.00
Pt660  Pt    0.50000   0.53964   0.71415   0.00000  Uiso   1.00
Pt661  Pt    0.62849   0.46036   0.32868   0.00000  Uiso   1.00
Pt662  Pt    0.67132   0.46036   0.62849   0.00000  Uiso   1.00
Pt663  Pt    0.62849   0.46036   0.67132   0.00000  Uiso   1.00
Pt664  Pt    0.32868   0.46036   0.62849   0.00000  Uiso   1.00
Pt665  Pt    0.62849   0.53964   0.32868   0.00000  Uiso   1.00
Pt666  Pt    0.67132   0.53964   0.62849   0.00000  Uiso   1.00
Pt667  Pt    0.62849   0.53964   0.67132   0.00000  Uiso   1.00
Pt668  Pt    0.32868   0.53964   0.62849   0.00000  Uiso   1.00
Pt669  Pt    0.67132   0.46036   0.37151   0.00000  Uiso   1.00
Pt670  Pt    0.37151   0.46036   0.32868   0.00000  Uiso   1.00
Pt671  Pt    0.37151   0.46036   0.67132   0.00000  Uiso   1.00
Pt672  Pt    0.32868   0.46036   0.37151   0.00000  Uiso   1.00
Pt673  Pt    0.67132   0.53964   0.37151   0.00000  Uiso   1.00
Pt674  Pt    0.37151   0.53964   0.67132   0.00000  Uiso   1.00
Pt675  Pt    0.32868   0.53964   0.37151   0.00000  Uiso   1.00
Pt676  Pt    0.37151   0.53964   0.32868   0.00000  Uiso   1.00
Pt677  Pt    0.50000   0.46036   0.28585   0.00000  Uiso   1.00
Pt678  Pt    0.28585   0.46036   0.50000   0.00000  Uiso   1.00
Pt679  Pt    0.50000   0.53964   0.28585   0.00000  Uiso   1.00
Pt680  Pt    0.28585   0.53964   0.50000   0.00000  Uiso   1.00
Pt681  Pt    0.54283   0.30179   0.41434   0.00000  Uiso   1.00
Pt682  Pt    0.54283   0.30179   0.58566   0.00000  Uiso   1.00
Pt683  Pt    0.58566   0.30179   0.54283   0.00000  Uiso   1.00
Pt684  Pt    0.41434   0.30179   0.54283   0.00000  Uiso   1.00
Pt685  Pt    0.58566   0.30179   0.45717   0.00000  Uiso   1.00
Pt686  Pt    0.45717   0.30179   0.41434   0.00000  Uiso   1.00
Pt687  Pt    0.45717   0.30179   0.58566   0.00000  Uiso   1.00
Pt688  Pt    0.41434   0.30179   0.45717   0.00000  Uiso   1.00
Pt689  Pt    0.54283   0.69821   0.41434   0.00000  Uiso   1.00
Pt690  Pt    0.58566   0.69821   0.54283   0.00000  Uiso   1.00
Pt691  Pt    0.54283   0.69821   0.58566   0.00000  Uiso   1.00
Pt692  Pt    0.41434   0.69821   0.54283   0.00000  Uiso   1.00
Pt693  Pt    0.58566   0.69821   0.45717   0.00000  Uiso   1.00
Pt694  Pt    0.45717   0.69821   0.41434   0.00000  Uiso   1.00
Pt695  Pt    0.41434   0.69821   0.45717   0.00000  Uiso   1.00
Pt696  Pt    0.45717   0.69821   0.58566   0.00000  Uiso   1.00
Pt697  Pt    0.71415   0.46036   0.41434   0.00000  Uiso   1.00
Pt698  Pt    0.71415   0.46036   0.58566   0.00000  Uiso   1.00
Pt699  Pt    0.58566   0.46036   0.71415   0.00000  Uiso   1.00
Pt700  Pt    0.41434   0.46036   0.71415   0.00000  Uiso   1.00
Pt701  Pt    0.71415   0.53964   0.41434   0.00000  Uiso   1.00
Pt702  Pt    0.71415   0.53964   0.58566   0.00000  Uiso   1.00
Pt703  Pt    0.58566   0.53964   0.71415   0.00000  Uiso   1.00
Pt704  Pt    0.41434   0.53964   0.71415   0.00000  Uiso   1.00
Pt705  Pt    0.58566   0.46036   0.28585   0.00000  Uiso   1.00
Pt706  Pt    0.41434   0.46036   0.28585   0.00000  Uiso   1.00
Pt707  Pt    0.28585   0.46036   0.41434   0.00000  Uiso   1.00
Pt708  Pt    0.28585   0.46036   0.58566   0.00000  Uiso   1.00
Pt709  Pt    0.58566   0.53964   0.28585   0.00000  Uiso   1.00
Pt710  Pt    0.41434   0.53964   0.28585   0.00000  Uiso   1.00
Pt711  Pt    0.28585   0.53964   0.41434   0.00000  Uiso   1.00
Pt712  Pt    0.28585   0.53964   0.58566   0.00000  Uiso   1.00
Pt713  Pt    0.62849   0.30179   0.50000   0.00000  Uiso   1.00
Pt714  Pt    0.50000   0.30179   0.62849   0.00000  Uiso   1.00
Pt715  Pt    0.50000   0.30179   0.37151   0.00000  Uiso   1.00
Pt716  Pt    0.37151   0.30179   0.50000   0.00000  Uiso   1.00
Pt717  Pt    0.62849   0.69821   0.50000   0.00000  Uiso   1.00
Pt718  Pt    0.50000   0.69821   0.62849   0.00000  Uiso   1.00
Pt719  Pt    0.50000   0.69821   0.37151   0.00000  Uiso   1.00
Pt720  Pt    0.37151   0.69821   0.50000   0.00000  Uiso   1.00
Pt721  Pt    0.71415   0.38108   0.50000   0.00000  Uiso   1.00
Pt722  Pt    0.50000   0.38108   0.71415   0.00000  Uiso   1.00
Pt723  Pt    0.62849   0.38108   0.32868   0.00000  Uiso   1.00
Pt724  Pt    0.62849   0.38108   0.67132   0.00000  Uiso   1.00
Pt725  Pt    0.67132   0.38108   0.62849   0.00000  Uiso   1.00
Pt726  Pt    0.32868   0.38108   0.62849   0.00000  Uiso   1.00
Pt727  Pt    0.71415   0.61892   0.50000   0.00000  Uiso   1.00
Pt728  Pt    0.50000   0.61892   0.71415   0.00000  Uiso   1.00
Pt729  Pt    0.67132   0.61892   0.62849   0.00000  Uiso   1.00
Pt730  Pt    0.62849   0.61892   0.67132   0.00000  Uiso   1.00
Pt731  Pt    0.62849   0.61892   0.32868   0.00000  Uiso   1.00
Pt732  Pt    0.32868   0.61892   0.62849   0.00000  Uiso   1.00
Pt733  Pt    0.67132   0.38108   0.37151   0.00000  Uiso   1.00
Pt734  Pt    0.37151   0.38108   0.67132   0.00000  Uiso   1.00
Pt735  Pt    0.37151   0.38108   0.32868   0.00000  Uiso   1.00
Pt736  Pt    0.32868   0.38108   0.37151   0.00000  Uiso   1.00
Pt737  Pt    0.50000   0.38108   0.28585   0.00000  Uiso   1.00
Pt738  Pt    0.28585   0.38108   0.50000   0.00000  Uiso   1.00
Pt739  Pt    0.67132   0.61892   0.37151   0.00000  Uiso   1.00
Pt740  Pt    0.37151   0.61892   0.32868   0.00000  Uiso   1.00
Pt741  Pt    0.37151   0.61892   0.67132   0.00000  Uiso   1.00
Pt742  Pt    0.32868   0.61892   0.37151   0.00000  Uiso   1.00
Pt743  Pt    0.50000   0.61892   0.28585   0.00000  Uiso   1.00
Pt744  Pt    0.28585   0.61892   0.50000   0.00000  Uiso   1.00
Pt745  Pt    0.62849   0.30179   0.58566   0.00000  Uiso   1.00
Pt746  Pt    0.62849   0.30179   0.41434   0.00000  Uiso   1.00
Pt747  Pt    0.58566   0.30179   0.62849   0.00000  Uiso   1.00
Pt748  Pt    0.41434   0.30179   0.62849   0.00000  Uiso   1.00
Pt749  Pt    0.58566   0.30179   0.37151   0.00000  Uiso   1.00
Pt750  Pt    0.41434   0.30179   0.37151   0.00000  Uiso   1.00
Pt751  Pt    0.37151   0.30179   0.58566   0.00000  Uiso   1.00
Pt752  Pt    0.37151   0.30179   0.41434   0.00000  Uiso   1.00
Pt753  Pt    0.62849   0.69821   0.58566   0.00000  Uiso   1.00
Pt754  Pt    0.62849   0.69821   0.41434   0.00000  Uiso   1.00
Pt755  Pt    0.58566   0.69821   0.62849   0.00000  Uiso   1.00
Pt756  Pt    0.41434   0.69821   0.62849   0.00000  Uiso   1.00
Pt757  Pt    0.58566   0.69821   0.37151   0.00000  Uiso   1.00
Pt758  Pt    0.41434   0.69821   0.37151   0.00000  Uiso   1.00
Pt759  Pt    0.37151   0.69821   0.58566   0.00000  Uiso   1.00
Pt760  Pt    0.37151   0.69821   0.41434   0.00000  Uiso   1.00
Pt761  Pt    0.71415   0.38108   0.58566   0.00000  Uiso   1.00
Pt762  Pt    0.71415   0.38108   0.41434   0.00000  Uiso   1.00
Pt763  Pt    0.58566   0.38108   0.71415   0.00000  Uiso   1.00
Pt764  Pt    0.41434   0.38108   0.71415   0.00000  Uiso   1.00
Pt765  Pt    0.71415   0.61892   0.58566   0.00000  Uiso   1.00
Pt766  Pt    0.71415   0.61892   0.41434   0.00000  Uiso   1.00
Pt767  Pt    0.58566   0.61892   0.71415   0.00000  Uiso   1.00
Pt768  Pt    0.41434   0.61892   0.71415   0.00000  Uiso   1.00
Pt769  Pt    0.58566   0.38108   0.28585   0.00000  Uiso   1.00
Pt770  Pt    0.41434   0.38108   0.28585   0.00000  Uiso   1.00
Pt771  Pt    0.28585   0.38108   0.58566   0.00000  Uiso   1.00
Pt772  Pt    0.28585   0.38108   0.41434   0.00000  Uiso   1.00
Pt773  Pt    0.58566   0.61892   0.28585   0.00000  Uiso   1.00
Pt774  Pt    0.41434   0.61892   0.28585   0.00000  Uiso   1.00
Pt775  Pt    0.28585   0.61892   0.41434   0.00000  Uiso   1.00
Pt776  Pt    0.28585   0.61892   0.58566   0.00000  Uiso   1.00
Pt777  Pt    0.54283   0.46036   0.24302   0.00000  Uiso   1.00
Pt778  Pt    0.75698   0.46036   0.54283   0.00000  Uiso   1.00
Pt779  Pt    0.54283   0.46036   0.75698   0.00000  Uiso   1.00
Pt780  Pt    0.24302   0.46036   0.54283   0.00000  Uiso   1.00
Pt781  Pt    0.54283   0.53964   0.24302   0.00000  Uiso   1.00
Pt782  Pt    0.75698   0.53964   0.54283   0.00000  Uiso   1.00
Pt783  Pt    0.54283   0.53964   0.75698   0.00000  Uiso   1.00
Pt784  Pt    0.24302   0.53964   0.54283   0.00000  Uiso   1.00
Pt785  Pt    0.75698   0.46036   0.45717   0.00000  Uiso   1.00
Pt786  Pt    0.45717   0.46036   0.24302   0.00000  Uiso   1.00
Pt787  Pt    0.24302   0.46036   0.45717   0.00000  Uiso   1.00
Pt788  Pt    0.45717   0.46036   0.75698   0.00000  Uiso   1.00
Pt789  Pt    0.75698   0.53964   0.45717   0.00000  Uiso   1.00
Pt790  Pt    0.45717   0.53964   0.24302   0.00000  Uiso   1.00
Pt791  Pt    0.45717   0.53964   0.75698   0.00000  Uiso   1.00
Pt792  Pt    0.24302   0.53964   0.45717   0.00000  Uiso   1.00
Pt793  Pt    0.67132   0.30179   0.54283   0.00000  Uiso   1.00
Pt794  Pt    0.54283   0.30179   0.32868   0.00000  Uiso   1.00
Pt795  Pt    0.54283   0.30179   0.67132   0.00000  Uiso   1.00
Pt796  Pt    0.32868   0.30179   0.54283   0.00000  Uiso   1.00
Pt797  Pt    0.67132   0.30179   0.45717   0.00000  Uiso   1.00
Pt798  Pt    0.45717   0.30179   0.32868   0.00000  Uiso   1.00
Pt799  Pt    0.45717   0.30179   0.67132   0.00000  Uiso   1.00
Pt800  Pt    0.32868   0.30179   0.45717   0.00000  Uiso   1.00
Pt801  Pt    0.67132   0.69821   0.54283   0.00000  Uiso   1.00
Pt802  Pt    0.54283   0.69821   0.32868   0.00000  Uiso   1.00
Pt803  Pt    0.54283   0.69821   0.67132   0.00000  Uiso   1.00
Pt804  Pt    0.32868   0.69821   0.54283   0.00000  Uiso   1.00
Pt805  Pt    0.67132   0.69821   0.45717   0.00000  Uiso   1.00
Pt806  Pt    0.45717   0.69821   0.32868   0.00000  Uiso   1.00
Pt807  Pt    0.45717   0.69821   0.67132   0.00000  Uiso   1.00
Pt808  Pt    0.32868   0.69821   0.45717   0.00000  Uiso   1.00
Pt809  Pt    0.71415   0.46036   0.32868   0.00000  Uiso   1.00
Pt810  Pt    0.71415   0.46036   0.67132   0.00000  Uiso   1.00
Pt811  Pt    0.67132   0.46036   0.71415   0.00000  Uiso   1.00
Pt812  Pt    0.32868   0.46036   0.71415   0.00000  Uiso   1.00
Pt813  Pt    0.71415   0.53964   0.32868   0.00000  Uiso   1.00
Pt814  Pt    0.71415   0.53964   0.67132   0.00000  Uiso   1.00
Pt815  Pt    0.67132   0.53964   0.71415   0.00000  Uiso   1.00
Pt816  Pt    0.32868   0.53964   0.71415   0.00000  Uiso   1.00
Pt817  Pt    0.67132   0.46036   0.28585   0.00000  Uiso   1.00
Pt818  Pt    0.32868   0.46036   0.28585   0.00000  Uiso   1.00
Pt819  Pt    0.28585   0.46036   0.67132   0.00000  Uiso   1.00
Pt820  Pt    0.28585   0.46036   0.32868   0.00000  Uiso   1.00
Pt821  Pt    0.67132   0.53964   0.28585   0.00000  Uiso   1.00
Pt822  Pt    0.32868   0.53964   0.28585   0.00000  Uiso   1.00
Pt823  Pt    0.28585   0.53964   0.67132   0.00000  Uiso   1.00
Pt824  Pt    0.28585   0.53964   0.32868   0.00000  Uiso   1.00
Pt825  Pt    0.54283   0.22251   0.50000   0.00000  Uiso   1.00
Pt826  Pt    0.50000   0.22251   0.54283   0.00000  Uiso   1.00
Pt827  Pt    0.50000   0.22251   0.45717   0.00000  Uiso   1.00
Pt828  Pt    0.45717   0.22251   0.50000   0.00000  Uiso   1.00
Pt829  Pt    0.54283   0.77749   0.50000   0.00000  Uiso   1.00
Pt830  Pt    0.50000   0.77749   0.54283   0.00000  Uiso   1.00
Pt831  Pt    0.50000   0.77749   0.45717   0.00000  Uiso   1.00
Pt832  Pt    0.45717   0.77749   0.50000   0.00000  Uiso   1.00
Pt833  Pt    0.54283   0.38108   0.24302   0.00000  Uiso   1.00
Pt834  Pt    0.75698   0.38108   0.54283   0.00000  Uiso   1.00
Pt835  Pt    0.54283   0.38108   0.75698   0.00000  Uiso   1.00
Pt836  Pt    0.24302   0.38108   0.54283   0.00000  Uiso   1.00
Pt837  Pt    0.75698   0.38108   0.45717   0.00000  Uiso   1.00
Pt838  Pt    0.45717   0.38108   0.24302   0.00000  Uiso   1.00
Pt839  Pt    0.24302   0.38108   0.45717   0.00000  Uiso   1.00
Pt840  Pt    0.45717   0.38108   0.75698   0.00000  Uiso   1.00
Pt841  Pt    0.54283   0.61892   0.24302   0.00000  Uiso   1.00
Pt842  Pt    0.75698   0.61892   0.54283   0.00000  Uiso   1.00
Pt843  Pt    0.54283   0.61892   0.75698   0.00000  Uiso   1.00
Pt844  Pt    0.24302   0.61892   0.54283   0.00000  Uiso   1.00
Pt845  Pt    0.75698   0.61892   0.45717   0.00000  Uiso   1.00
Pt846  Pt    0.45717   0.61892   0.24302   0.00000  Uiso   1.00
Pt847  Pt    0.45717   0.61892   0.75698   0.00000  Uiso   1.00
Pt848  Pt    0.24302   0.61892   0.45717   0.00000  Uiso   1.00
Pt849  Pt    0.62849   0.46036   0.24302   0.00000  Uiso   1.00
Pt850  Pt    0.62849   0.46036   0.75698   0.00000  Uiso   1.00
Pt851  Pt    0.75698   0.46036   0.62849   0.00000  Uiso   1.00
Pt852  Pt    0.24302   0.46036   0.62849   0.00000  Uiso   1.00
Pt853  Pt    0.62849   0.53964   0.24302   0.00000  Uiso   1.00
Pt854  Pt    0.75698   0.53964   0.62849   0.00000  Uiso   1.00
Pt855  Pt    0.62849   0.53964   0.75698   0.00000  Uiso   1.00
Pt856  Pt    0.24302   0.53964   0.62849   0.00000  Uiso   1.00
Pt857  Pt    0.75698   0.46036   0.37151   0.00000  Uiso   1.00
Pt858  Pt    0.37151   0.46036   0.24302   0.00000  Uiso   1.00
Pt859  Pt    0.24302   0.46036   0.37151   0.00000  Uiso   1.00
Pt860  Pt    0.37151   0.46036   0.75698   0.00000  Uiso   1.00
Pt861  Pt    0.75698   0.53964   0.37151   0.00000  Uiso   1.00
Pt862  Pt    0.37151   0.53964   0.24302   0.00000  Uiso   1.00
Pt863  Pt    0.24302   0.53964   0.37151   0.00000  Uiso   1.00
Pt864  Pt    0.37151   0.53964   0.75698   0.00000  Uiso   1.00
Pt865  Pt    0.71415   0.30179   0.50000   0.00000  Uiso   1.00
Pt866  Pt    0.50000   0.30179   0.71415   0.00000  Uiso   1.00
Pt867  Pt    0.62849   0.30179   0.32868   0.00000  Uiso   1.00
Pt868  Pt    0.67132   0.30179   0.62849   0.00000  Uiso   1.00
Pt869  Pt    0.62849   0.30179   0.67132   0.00000  Uiso   1.00
Pt870  Pt    0.32868   0.30179   0.62849   0.00000  Uiso   1.00
Pt871  Pt    0.67132   0.30179   0.37151   0.00000  Uiso   1.00
Pt872  Pt    0.37151   0.30179   0.67132   0.00000  Uiso   1.00
Pt873  Pt    0.32868   0.30179   0.37151   0.00000  Uiso   1.00
Pt874  Pt    0.37151   0.30179   0.32868   0.00000  Uiso   1.00
Pt875  Pt    0.71415   0.69821   0.50000   0.00000  Uiso   1.00
Pt876  Pt    0.50000   0.69821   0.71415   0.00000  Uiso   1.00
Pt877  Pt    0.50000   0.30179   0.28585   0.00000  Uiso   1.00
Pt878  Pt    0.28585   0.30179   0.50000   0.00000  Uiso   1.00
Pt879  Pt    0.67132   0.69821   0.62849   0.00000  Uiso   1.00
Pt880  Pt    0.62849   0.69821   0.32868   0.00000  Uiso   1.00
Pt881  Pt    0.62849   0.69821   0.67132   0.00000  Uiso   1.00
Pt882  Pt    0.32868   0.69821   0.62849   0.00000  Uiso   1.00
Pt883  Pt    0.67132   0.69821   0.37151   0.00000  Uiso   1.00
Pt884  Pt    0.37151   0.69821   0.32868   0.00000  Uiso   1.00
Pt885  Pt    0.37151   0.69821   0.67132   0.00000  Uiso   1.00
Pt886  Pt    0.32868   0.69821   0.37151   0.00000  Uiso   1.00
Pt887  Pt    0.50000   0.69821   0.28585   0.00000  Uiso   1.00
Pt888  Pt    0.28585   0.69821   0.50000   0.00000  Uiso   1.00
Pt889  Pt    0.58566   0.22251   0.54283   0.00000  Uiso   1.00
Pt890  Pt    0.54283   0.22251   0.41434   0.00000  Uiso   1.00
Pt891  Pt    0.54283   0.22251   0.58566   0.00000  Uiso   1.00
Pt892  Pt    0.41434   0.22251   0.54283   0.00000  Uiso   1.00
Pt893  Pt    0.58566   0.22251   0.45717   0.00000  Uiso   1.00
Pt894  Pt    0.45717   0.22251   0.41434   0.00000  Uiso   1.00
Pt895  Pt    0.45717   0.22251   0.58566   0.00000  Uiso   1.00
Pt896  Pt    0.41434   0.22251   0.45717   0.00000  Uiso   1.00
Pt897  Pt    0.58566   0.77749   0.54283   0.00000  Uiso   1.00
Pt898  Pt    0.54283   0.77749   0.41434   0.00000  Uiso   1.00
Pt899  Pt    0.54283   0.77749   0.58566   0.00000  Uiso   1.00
Pt900  Pt    0.41434   0.77749   0.54283   0.00000  Uiso   1.00
Pt901  Pt    0.58566   0.77749   0.45717   0.00000  Uiso   1.00
Pt902  Pt    0.41434   0.77749   0.45717   0.00000  Uiso   1.00
Pt903  Pt    0.45717   0.77749   0.41434   0.00000  Uiso   1.00
Pt904  Pt    0.45717   0.77749   0.58566   0.00000  Uiso   1.00
Pt905  Pt    0.71415   0.38108   0.32868   0.00000  Uiso   1.00
Pt906  Pt    0.71415   0.38108   0.67132   0.00000  Uiso   1.00
Pt907  Pt    0.67132   0.38108   0.71415   0.00000  Uiso   1.00
Pt908  Pt    0.32868   0.38108   0.71415   0.00000  Uiso   1.00
Pt909  Pt    0.71415   0.61892   0.32868   0.00000  Uiso   1.00
Pt910  Pt    0.71415   0.61892   0.67132   0.00000  Uiso   1.00
Pt911  Pt    0.67132   0.61892   0.71415   0.00000  Uiso   1.00
Pt912  Pt    0.32868   0.61892   0.71415   0.00000  Uiso   1.00
Pt913  Pt    0.67132   0.38108   0.28585   0.00000  Uiso   1.00
Pt914  Pt    0.32868   0.38108   0.28585   0.00000  Uiso   1.00
Pt915  Pt    0.28585   0.38108   0.32868   0.00000  Uiso   1.00
Pt916  Pt    0.28585   0.38108   0.67132   0.00000  Uiso   1.00
Pt917  Pt    0.67132   0.61892   0.28585   0.00000  Uiso   1.00
Pt918  Pt    0.32868   0.61892   0.28585   0.00000  Uiso   1.00
Pt919  Pt    0.28585   0.61892   0.32868   0.00000  Uiso   1.00
Pt920  Pt    0.28585   0.61892   0.67132   0.00000  Uiso   1.00
Pt921  Pt    0.79981   0.46036   0.50000   0.00000  Uiso   1.00
Pt922  Pt    0.50000   0.46036   0.79981   0.00000  Uiso   1.00
Pt923  Pt    0.79981   0.53964   0.50000   0.00000  Uiso   1.00
Pt924  Pt    0.50000   0.53964   0.79981   0.00000  Uiso   1.00
Pt925  Pt    0.50000   0.46036   0.20019   0.00000  Uiso   1.00
Pt926  Pt    0.20019   0.46036   0.50000   0.00000  Uiso   1.00
Pt927  Pt    0.50000   0.53964   0.20019   0.00000  Uiso   1.00
Pt928  Pt    0.20019   0.53964   0.50000   0.00000  Uiso   1.00
Pt929  Pt    0.71415   0.30179   0.41434   0.00000  Uiso   1.00
Pt930  Pt    0.71415   0.30179   0.58566   0.00000  Uiso   1.00
Pt931  Pt    0.58566   0.30179   0.71415   0.00000  Uiso   1.00
Pt932  Pt    0.41434   0.30179   0.71415   0.00000  Uiso   1.00
Pt933  Pt    0.71415   0.69821   0.58566   0.00000  Uiso   1.00
Pt934  Pt    0.71415   0.69821   0.41434   0.00000  Uiso   1.00
Pt935  Pt    0.58566   0.69821   0.71415   0.00000  Uiso   1.00
Pt936  Pt    0.41434   0.69821   0.71415   0.00000  Uiso   1.00
Pt937  Pt    0.58566   0.30179   0.28585   0.00000  Uiso   1.00
Pt938  Pt    0.41434   0.30179   0.28585   0.00000  Uiso   1.00
Pt939  Pt    0.28585   0.30179   0.41434   0.00000  Uiso   1.00
Pt940  Pt    0.28585   0.30179   0.58566   0.00000  Uiso   1.00
Pt941  Pt    0.58566   0.69821   0.28585   0.00000  Uiso   1.00
Pt942  Pt    0.41434   0.69821   0.28585   0.00000  Uiso   1.00
Pt943  Pt    0.28585   0.69821   0.41434   0.00000  Uiso   1.00
Pt944  Pt    0.28585   0.69821   0.58566   0.00000  Uiso   1.00
Pt945  Pt    0.62849   0.22251   0.50000   0.00000  Uiso   1.00
Pt946  Pt    0.50000   0.22251   0.62849   0.00000  Uiso   1.00
Pt947  Pt    0.50000   0.22251   0.37151   0.00000  Uiso   1.00
Pt948  Pt    0.37151   0.22251   0.50000   0.00000  Uiso   1.00
Pt949  Pt    0.62849   0.77749   0.50000   0.00000  Uiso   1.00
Pt950  Pt    0.50000   0.77749   0.62849   0.00000  Uiso   1.00
Pt951  Pt    0.50000   0.77749   0.37151   0.00000  Uiso   1.00
Pt952  Pt    0.37151   0.77749   0.50000   0.00000  Uiso   1.00
Pt953  Pt    0.62849   0.38108   0.24302   0.00000  Uiso   1.00
Pt954  Pt    0.62849   0.38108   0.75698   0.00000  Uiso   1.00
Pt955  Pt    0.75698   0.38108   0.62849   0.00000  Uiso   1.00
Pt956  Pt    0.24302   0.38108   0.62849   0.00000  Uiso   1.00
Pt957  Pt    0.62849   0.61892   0.24302   0.00000  Uiso   1.00
Pt958  Pt    0.75698   0.61892   0.62849   0.00000  Uiso   1.00
Pt959  Pt    0.62849   0.61892   0.75698   0.00000  Uiso   1.00
Pt960  Pt    0.24302   0.61892   0.62849   0.00000  Uiso   1.00
Pt961  Pt    0.75698   0.38108   0.37151   0.00000  Uiso   1.00
Pt962  Pt    0.37151   0.38108   0.24302   0.00000  Uiso   1.00
Pt963  Pt    0.24302   0.38108   0.37151   0.00000  Uiso   1.00
Pt964  Pt    0.37151   0.38108   0.75698   0.00000  Uiso   1.00
Pt965  Pt    0.75698   0.61892   0.37151   0.00000  Uiso   1.00
Pt966  Pt    0.37151   0.61892   0.24302   0.00000  Uiso   1.00
Pt967  Pt    0.24302   0.61892   0.37151   0.00000  Uiso   1.00
Pt968  Pt    0.37151   0.61892   0.75698   0.00000  Uiso   1.00
Pt969  Pt    0.79981   0.46036   0.41434   0.00000  Uiso   1.00
Pt970  Pt    0.79981   0.46036   0.58566   0.00000  Uiso   1.00
Pt971  Pt    0.41434   0.46036   0.79981   0.00000  Uiso   1.00
Pt972  Pt    0.58566   0.46036   0.79981   0.00000  Uiso   1.00
Pt973  Pt    0.79981   0.53964   0.41434   0.00000  Uiso   1.00
Pt974  Pt    0.79981   0.53964   0.58566   0.00000  Uiso   1.00
Pt975  Pt    0.58566   0.53964   0.79981   0.00000  Uiso   1.00
Pt976  Pt    0.41434   0.53964   0.79981   0.00000  Uiso   1.00
Pt977  Pt    0.58566   0.46036   0.20019   0.00000  Uiso   1.00
Pt978  Pt    0.41434   0.46036   0.20019   0.00000  Uiso   1.00
Pt979  Pt    0.20019   0.46036   0.58566   0.00000  Uiso   1.00
Pt980  Pt    0.20019   0.46036   0.41434   0.00000  Uiso   1.00
Pt981  Pt    0.58566   0.53964   0.20019   0.00000  Uiso   1.00
Pt982  Pt    0.41434   0.53964   0.20019   0.00000  Uiso   1.00
Pt983  Pt    0.20019   0.53964   0.41434   0.00000  Uiso   1.00
Pt984  Pt    0.20019   0.53964   0.58566   0.00000  Uiso   1.00
Pt985  Pt    0.62849   0.22251   0.41434   0.00000  Uiso   1.00
Pt986  Pt    0.62849   0.22251   0.58566   0.00000  Uiso   1.00
Pt987  Pt    0.58566   0.22251   0.62849   0.00000  Uiso   1.00
Pt988  Pt    0.41434   0.22251   0.62849   0.00000  Uiso   1.00
Pt989  Pt    0.58566   0.22251   0.37151   0.00000  Uiso   1.00
Pt990  Pt    0.41434   0.22251   0.37151   0.00000  Uiso   1.00
Pt991  Pt    0.37151   0.22251   0.58566   0.00000  Uiso   1.00
Pt992  Pt    0.37151   0.22251   0.41434   0.00000  Uiso   1.00
Pt993  Pt    0.58566   0.77749   0.62849   0.00000  Uiso   1.00
Pt994  Pt    0.62849   0.77749   0.41434   0.00000  Uiso   1.00
Pt995  Pt    0.62849   0.77749   0.58566   0.00000  Uiso   1.00
Pt996  Pt    0.41434   0.77749   0.62849   0.00000  Uiso   1.00
Pt997  Pt    0.58566   0.77749   0.37151   0.00000  Uiso   1.00
Pt998  Pt    0.41434   0.77749   0.37151   0.00000  Uiso   1.00
Pt999  Pt    0.37151   0.77749   0.41434   0.00000  Uiso   1.00
Pt1000 Pt    0.37151   0.77749   0.58566   0.00000  Uiso   1.00
Pt1001 Pt    0.79981   0.38108   0.50000   0.00000  Uiso   1.00
Pt1002 Pt    0.50000   0.38108   0.79981   0.00000  Uiso   1.00
Pt1003 Pt    0.79981   0.61892   0.50000   0.00000  Uiso   1.00
Pt1004 Pt    0.50000   0.61892   0.79981   0.00000  Uiso   1.00
Pt1005 Pt    0.50000   0.38108   0.20019   0.00000  Uiso   1.00
Pt1006 Pt    0.20019   0.38108   0.50000   0.00000  Uiso   1.00
Pt1007 Pt    0.50000   0.61892   0.20019   0.00000  Uiso   1.00
Pt1008 Pt    0.20019   0.61892   0.50000   0.00000  Uiso   1.00
Pt1009 Pt    0.54283   0.30179   0.24302   0.00000  Uiso   1.00
Pt1010 Pt    0.75698   0.30179   0.54283   0.00000  Uiso   1.00
Pt1011 Pt    0.24302   0.30179   0.54283   0.00000  Uiso   1.00
Pt1012 Pt    0.54283   0.30179   0.75698   0.00000  Uiso   1.00
Pt1013 Pt    0.75698   0.30179   0.45717   0.00000  Uiso   1.00
Pt1014 Pt    0.45717   0.30179   0.24302   0.00000  Uiso   1.00
Pt1015 Pt    0.24302   0.30179   0.45717   0.00000  Uiso   1.00
Pt1016 Pt    0.45717   0.30179   0.75698   0.00000  Uiso   1.00
Pt1017 Pt    0.54283   0.69821   0.24302   0.00000  Uiso   1.00
Pt1018 Pt    0.75698   0.69821   0.54283   0.00000  Uiso   1.00
Pt1019 Pt    0.54283   0.69821   0.75698   0.00000  Uiso   1.00
Pt1020 Pt    0.24302   0.69821   0.54283   0.00000  Uiso   1.00
Pt1021 Pt    0.75698   0.69821   0.45717   0.00000  Uiso   1.00
Pt1022 Pt    0.45717   0.69821   0.24302   0.00000  Uiso   1.00
Pt1023 Pt    0.24302   0.69821   0.45717   0.00000  Uiso   1.00
Pt1024 Pt    0.45717   0.69821   0.75698   0.00000  Uiso   1.00
Pt1025 Pt    0.67132   0.22251   0.54283   0.00000  Uiso   1.00
Pt1026 Pt    0.54283   0.22251   0.67132   0.00000  Uiso   1.00
Pt1027 Pt    0.54283   0.22251   0.32868   0.00000  Uiso   1.00
Pt1028 Pt    0.32868   0.22251   0.54283   0.00000  Uiso   1.00
Pt1029 Pt    0.67132   0.22251   0.45717   0.00000  Uiso   1.00
Pt1030 Pt    0.45717   0.22251   0.67132   0.00000  Uiso   1.00
Pt1031 Pt    0.45717   0.22251   0.32868   0.00000  Uiso   1.00
Pt1032 Pt    0.32868   0.22251   0.45717   0.00000  Uiso   1.00
Pt1033 Pt    0.67132   0.77749   0.54283   0.00000  Uiso   1.00
Pt1034 Pt    0.54283   0.77749   0.32868   0.00000  Uiso   1.00
Pt1035 Pt    0.54283   0.77749   0.67132   0.00000  Uiso   1.00
Pt1036 Pt    0.32868   0.77749   0.54283   0.00000  Uiso   1.00
Pt1037 Pt    0.67132   0.77749   0.45717   0.00000  Uiso   1.00
Pt1038 Pt    0.45717   0.77749   0.67132   0.00000  Uiso   1.00
Pt1039 Pt    0.45717   0.77749   0.32868   0.00000  Uiso   1.00
Pt1040 Pt    0.32868   0.77749   0.45717   0.00000  Uiso   1.00
