data_super3_n4-con1.20_18_15nm
_audit_creation_date              2023-11-06
_audit_creation_method            'Materials Studio'
_symmetry_space_group_name_H-M    'P1'
_symmetry_Int_Tables_number       1
_symmetry_cell_setting            triclinic
loop_
_symmetry_equiv_pos_as_xyz
  x,y,z
_cell_length_a                    45.0000
_cell_length_b                    45.0000
_cell_length_c                    45.0000
_cell_angle_alpha                 90.0000
_cell_angle_beta                  90.0000
_cell_angle_gamma                 90.0000
loop_
_atom_site_label
_atom_site_type_symbol
_atom_site_fract_x
_atom_site_fract_y
_atom_site_fract_z
_atom_site_U_iso_or_equiv
_atom_site_adp_type
_atom_site_occupancy
Ni0    Ni    0.47138   0.54038   0.52871   0.00000  Uiso   1.00
Ni1    Ni    0.47138   0.54038   0.47136   0.00000  Uiso   1.00
Ni2    Ni    0.47138   0.45973   0.47136   0.00000  Uiso   1.00
Ni3    Ni    0.47138   0.45973   0.52871   0.00000  Uiso   1.00
Ni4    Ni    0.52873   0.54038   0.47136   0.00000  Uiso   1.00
Ni5    Ni    0.52873   0.54038   0.52871   0.00000  Uiso   1.00
Ni6    Ni    0.52873   0.45973   0.47136   0.00000  Uiso   1.00
Ni7    Ni    0.52873   0.45973   0.52871   0.00000  Uiso   1.00
Ni8    Ni    0.44271   0.50006   0.50003   0.00000  Uiso   1.00
Ni9    Ni    0.50005   0.50006   0.44269   0.00000  Uiso   1.00
Ni10   Ni    0.50005   0.50006   0.55738   0.00000  Uiso   1.00
Ni11   Ni    0.55740   0.50006   0.50003   0.00000  Uiso   1.00
Ni12   Ni    0.50005   0.58070   0.50003   0.00000  Uiso   1.00
Ni13   Ni    0.50005   0.41941   0.50003   0.00000  Uiso   1.00
Ni14   Ni    0.41403   0.54038   0.52871   0.00000  Uiso   1.00
Ni15   Ni    0.41403   0.54038   0.47136   0.00000  Uiso   1.00
Ni16   Ni    0.41403   0.45973   0.47136   0.00000  Uiso   1.00
Ni17   Ni    0.41403   0.45973   0.52871   0.00000  Uiso   1.00
Ni18   Ni    0.52873   0.54038   0.58606   0.00000  Uiso   1.00
Ni19   Ni    0.52873   0.54038   0.41401   0.00000  Uiso   1.00
Ni20   Ni    0.47138   0.54038   0.41401   0.00000  Uiso   1.00
Ni21   Ni    0.47138   0.54038   0.58606   0.00000  Uiso   1.00
Ni22   Ni    0.52873   0.45973   0.41401   0.00000  Uiso   1.00
Ni23   Ni    0.52873   0.45973   0.58606   0.00000  Uiso   1.00
Ni24   Ni    0.47138   0.45973   0.41401   0.00000  Uiso   1.00
Ni25   Ni    0.47138   0.45973   0.58606   0.00000  Uiso   1.00
Ni26   Ni    0.58607   0.54038   0.47136   0.00000  Uiso   1.00
Ni27   Ni    0.58607   0.54038   0.52871   0.00000  Uiso   1.00
Ni28   Ni    0.58607   0.45973   0.52871   0.00000  Uiso   1.00
Ni29   Ni    0.58607   0.45973   0.47136   0.00000  Uiso   1.00
Ni30   Ni    0.44271   0.58070   0.55738   0.00000  Uiso   1.00
Ni31   Ni    0.44271   0.58070   0.44269   0.00000  Uiso   1.00
Ni32   Ni    0.55740   0.58070   0.44269   0.00000  Uiso   1.00
Ni33   Ni    0.55740   0.58070   0.55738   0.00000  Uiso   1.00
Ni34   Ni    0.44271   0.41941   0.44269   0.00000  Uiso   1.00
Ni35   Ni    0.44271   0.41941   0.55738   0.00000  Uiso   1.00
Ni36   Ni    0.55740   0.41941   0.44269   0.00000  Uiso   1.00
Ni37   Ni    0.55740   0.41941   0.55738   0.00000  Uiso   1.00
Ni38   Ni    0.47138   0.62102   0.52871   0.00000  Uiso   1.00
Ni39   Ni    0.47138   0.62102   0.47136   0.00000  Uiso   1.00
Ni40   Ni    0.52873   0.62102   0.47136   0.00000  Uiso   1.00
Ni41   Ni    0.52873   0.62102   0.52871   0.00000  Uiso   1.00
Ni42   Ni    0.47138   0.37909   0.52871   0.00000  Uiso   1.00
Ni43   Ni    0.47138   0.37909   0.47136   0.00000  Uiso   1.00
Ni44   Ni    0.52873   0.37909   0.47136   0.00000  Uiso   1.00
Ni45   Ni    0.52873   0.37909   0.52871   0.00000  Uiso   1.00
Ni46   Ni    0.41403   0.54038   0.41401   0.00000  Uiso   1.00
Ni47   Ni    0.41403   0.54038   0.58606   0.00000  Uiso   1.00
Ni48   Ni    0.41403   0.45973   0.41401   0.00000  Uiso   1.00
Ni49   Ni    0.41403   0.45973   0.58606   0.00000  Uiso   1.00
Ni50   Ni    0.58607   0.54038   0.58606   0.00000  Uiso   1.00
Ni51   Ni    0.58607   0.54038   0.41401   0.00000  Uiso   1.00
Ni52   Ni    0.58607   0.45973   0.58606   0.00000  Uiso   1.00
Ni53   Ni    0.58607   0.45973   0.41401   0.00000  Uiso   1.00
Ni54   Ni    0.38536   0.50006   0.55738   0.00000  Uiso   1.00
Ni55   Ni    0.38536   0.50006   0.44269   0.00000  Uiso   1.00
Ni56   Ni    0.44271   0.50006   0.38534   0.00000  Uiso   1.00
Ni57   Ni    0.44271   0.50006   0.61473   0.00000  Uiso   1.00
Ni58   Ni    0.55740   0.50006   0.61473   0.00000  Uiso   1.00
Ni59   Ni    0.55740   0.50006   0.38534   0.00000  Uiso   1.00
Ni60   Ni    0.61475   0.50006   0.55738   0.00000  Uiso   1.00
Ni61   Ni    0.61475   0.50006   0.44269   0.00000  Uiso   1.00
Ni62   Ni    0.38536   0.58070   0.50003   0.00000  Uiso   1.00
Ni63   Ni    0.50005   0.58070   0.38534   0.00000  Uiso   1.00
Ni64   Ni    0.50005   0.58070   0.61473   0.00000  Uiso   1.00
Ni65   Ni    0.38536   0.41941   0.50003   0.00000  Uiso   1.00
Ni66   Ni    0.61475   0.58070   0.50003   0.00000  Uiso   1.00
Ni67   Ni    0.50005   0.41941   0.38534   0.00000  Uiso   1.00
Ni68   Ni    0.50005   0.41941   0.61473   0.00000  Uiso   1.00
Ni69   Ni    0.61475   0.41941   0.50003   0.00000  Uiso   1.00
Ni70   Ni    0.41403   0.62102   0.52871   0.00000  Uiso   1.00
Ni71   Ni    0.41403   0.62102   0.47136   0.00000  Uiso   1.00
Ni72   Ni    0.52873   0.62102   0.58606   0.00000  Uiso   1.00
Ni73   Ni    0.52873   0.62102   0.41401   0.00000  Uiso   1.00
Ni74   Ni    0.47138   0.62102   0.41401   0.00000  Uiso   1.00
Ni75   Ni    0.47138   0.62102   0.58606   0.00000  Uiso   1.00
Ni76   Ni    0.58607   0.62102   0.52871   0.00000  Uiso   1.00
Ni77   Ni    0.58607   0.62102   0.47136   0.00000  Uiso   1.00
Ni78   Ni    0.41403   0.37909   0.52871   0.00000  Uiso   1.00
Ni79   Ni    0.41403   0.37909   0.47136   0.00000  Uiso   1.00
Ni80   Ni    0.52873   0.37909   0.58606   0.00000  Uiso   1.00
Ni81   Ni    0.52873   0.37909   0.41401   0.00000  Uiso   1.00
Ni82   Ni    0.47138   0.37909   0.41401   0.00000  Uiso   1.00
Ni83   Ni    0.47138   0.37909   0.58606   0.00000  Uiso   1.00
Ni84   Ni    0.58607   0.37909   0.47136   0.00000  Uiso   1.00
Ni85   Ni    0.58607   0.37909   0.52871   0.00000  Uiso   1.00
Ni86   Ni    0.35668   0.54038   0.47136   0.00000  Uiso   1.00
Ni87   Ni    0.35668   0.54038   0.52871   0.00000  Uiso   1.00
Ni88   Ni    0.35668   0.45973   0.52871   0.00000  Uiso   1.00
Ni89   Ni    0.35668   0.45973   0.47136   0.00000  Uiso   1.00
Ni90   Ni    0.47138   0.54038   0.64340   0.00000  Uiso   1.00
Ni91   Ni    0.47138   0.54038   0.35667   0.00000  Uiso   1.00
Ni92   Ni    0.47138   0.45973   0.35667   0.00000  Uiso   1.00
Ni93   Ni    0.47138   0.45973   0.64340   0.00000  Uiso   1.00
Ni94   Ni    0.52873   0.54038   0.64340   0.00000  Uiso   1.00
Ni95   Ni    0.52873   0.54038   0.35667   0.00000  Uiso   1.00
Ni96   Ni    0.52873   0.45973   0.64340   0.00000  Uiso   1.00
Ni97   Ni    0.52873   0.45973   0.35667   0.00000  Uiso   1.00
Ni98   Ni    0.64342   0.54038   0.52871   0.00000  Uiso   1.00
Ni99   Ni    0.64342   0.54038   0.47136   0.00000  Uiso   1.00
Ni100  Ni    0.64342   0.45973   0.52871   0.00000  Uiso   1.00
Ni101  Ni    0.64342   0.45973   0.47136   0.00000  Uiso   1.00
Ni102  Ni    0.44271   0.66135   0.50003   0.00000  Uiso   1.00
Ni103  Ni    0.44271   0.33877   0.50003   0.00000  Uiso   1.00
Ni104  Ni    0.50005   0.66135   0.44269   0.00000  Uiso   1.00
Ni105  Ni    0.50005   0.66135   0.55738   0.00000  Uiso   1.00
Ni106  Ni    0.50005   0.33877   0.44269   0.00000  Uiso   1.00
Ni107  Ni    0.50005   0.33877   0.55738   0.00000  Uiso   1.00
Ni108  Ni    0.55740   0.66135   0.50003   0.00000  Uiso   1.00
Ni109  Ni    0.55740   0.33877   0.50003   0.00000  Uiso   1.00
Ni110  Ni    0.41403   0.62102   0.58606   0.00000  Uiso   1.00
Ni111  Ni    0.41403   0.62102   0.41401   0.00000  Uiso   1.00
Ni112  Ni    0.41403   0.37909   0.41401   0.00000  Uiso   1.00
Ni113  Ni    0.41403   0.37909   0.58606   0.00000  Uiso   1.00
Ni114  Ni    0.58607   0.62102   0.41401   0.00000  Uiso   1.00
Ni115  Ni    0.58607   0.62102   0.58606   0.00000  Uiso   1.00
Ni116  Ni    0.58607   0.37909   0.41401   0.00000  Uiso   1.00
Ni117  Ni    0.58607   0.37909   0.58606   0.00000  Uiso   1.00
Ni118  Ni    0.35668   0.54038   0.58606   0.00000  Uiso   1.00
Ni119  Ni    0.35668   0.54038   0.41401   0.00000  Uiso   1.00
Ni120  Ni    0.35668   0.45973   0.58606   0.00000  Uiso   1.00
Ni121  Ni    0.35668   0.45973   0.41401   0.00000  Uiso   1.00
Ni122  Ni    0.41403   0.54038   0.35667   0.00000  Uiso   1.00
Ni123  Ni    0.41403   0.54038   0.64340   0.00000  Uiso   1.00
Ni124  Ni    0.41403   0.45973   0.35667   0.00000  Uiso   1.00
Ni125  Ni    0.41403   0.45973   0.64340   0.00000  Uiso   1.00
Ni126  Ni    0.58607   0.54038   0.64340   0.00000  Uiso   1.00
Ni127  Ni    0.58607   0.54038   0.35667   0.00000  Uiso   1.00
Ni128  Ni    0.58607   0.45973   0.64340   0.00000  Uiso   1.00
Ni129  Ni    0.58607   0.45973   0.35667   0.00000  Uiso   1.00
Ni130  Ni    0.64342   0.54038   0.58606   0.00000  Uiso   1.00
Ni131  Ni    0.64342   0.54038   0.41401   0.00000  Uiso   1.00
Ni132  Ni    0.64342   0.45973   0.58606   0.00000  Uiso   1.00
Ni133  Ni    0.64342   0.45973   0.41401   0.00000  Uiso   1.00
Ni134  Ni    0.32801   0.50006   0.50003   0.00000  Uiso   1.00
Ni135  Ni    0.50005   0.50006   0.67208   0.00000  Uiso   1.00
Ni136  Ni    0.50005   0.50006   0.32799   0.00000  Uiso   1.00
Ni137  Ni    0.67210   0.50006   0.50003   0.00000  Uiso   1.00
Ni138  Ni    0.38536   0.58070   0.61473   0.00000  Uiso   1.00
Ni139  Ni    0.38536   0.58070   0.38534   0.00000  Uiso   1.00
Ni140  Ni    0.38536   0.41941   0.61473   0.00000  Uiso   1.00
Ni141  Ni    0.38536   0.41941   0.38534   0.00000  Uiso   1.00
Ni142  Ni    0.61475   0.58070   0.61473   0.00000  Uiso   1.00
Ni143  Ni    0.61475   0.58070   0.38534   0.00000  Uiso   1.00
Ni144  Ni    0.61475   0.41941   0.61473   0.00000  Uiso   1.00
Ni145  Ni    0.61475   0.41941   0.38534   0.00000  Uiso   1.00
Ni146  Ni    0.35668   0.62102   0.47136   0.00000  Uiso   1.00
Ni147  Ni    0.35668   0.62102   0.52871   0.00000  Uiso   1.00
Ni148  Ni    0.47138   0.62102   0.35667   0.00000  Uiso   1.00
Ni149  Ni    0.47138   0.62102   0.64340   0.00000  Uiso   1.00
Ni150  Ni    0.35668   0.37909   0.47136   0.00000  Uiso   1.00
Ni151  Ni    0.35668   0.37909   0.52871   0.00000  Uiso   1.00
Ni152  Ni    0.47138   0.37909   0.35667   0.00000  Uiso   1.00
Ni153  Ni    0.47138   0.37909   0.64340   0.00000  Uiso   1.00
Ni154  Ni    0.52873   0.62102   0.64340   0.00000  Uiso   1.00
Ni155  Ni    0.52873   0.62102   0.35667   0.00000  Uiso   1.00
Ni156  Ni    0.64342   0.62102   0.52871   0.00000  Uiso   1.00
Ni157  Ni    0.64342   0.62102   0.47136   0.00000  Uiso   1.00
Ni158  Ni    0.52873   0.37909   0.64340   0.00000  Uiso   1.00
Ni159  Ni    0.52873   0.37909   0.35667   0.00000  Uiso   1.00
Ni160  Ni    0.64342   0.37909   0.52871   0.00000  Uiso   1.00
Ni161  Ni    0.64342   0.37909   0.47136   0.00000  Uiso   1.00
Ni162  Ni    0.32801   0.58070   0.44269   0.00000  Uiso   1.00
Ni163  Ni    0.32801   0.58070   0.55738   0.00000  Uiso   1.00
Ni164  Ni    0.44271   0.58070   0.32799   0.00000  Uiso   1.00
Ni165  Ni    0.44271   0.58070   0.67208   0.00000  Uiso   1.00
Ni166  Ni    0.32801   0.41941   0.44269   0.00000  Uiso   1.00
Ni167  Ni    0.32801   0.41941   0.55738   0.00000  Uiso   1.00
Ni168  Ni    0.55740   0.58070   0.67208   0.00000  Uiso   1.00
Ni169  Ni    0.55740   0.58070   0.32799   0.00000  Uiso   1.00
Ni170  Ni    0.44271   0.41941   0.32799   0.00000  Uiso   1.00
Ni171  Ni    0.44271   0.41941   0.67208   0.00000  Uiso   1.00
Ni172  Ni    0.67210   0.58070   0.55738   0.00000  Uiso   1.00
Ni173  Ni    0.67210   0.58070   0.44269   0.00000  Uiso   1.00
Ni174  Ni    0.55740   0.41941   0.67208   0.00000  Uiso   1.00
Ni175  Ni    0.55740   0.41941   0.32799   0.00000  Uiso   1.00
Ni176  Ni    0.67210   0.41941   0.55738   0.00000  Uiso   1.00
Ni177  Ni    0.67210   0.41941   0.44269   0.00000  Uiso   1.00
Ni178  Ni    0.47138   0.70167   0.47136   0.00000  Uiso   1.00
Ni179  Ni    0.47138   0.70167   0.52871   0.00000  Uiso   1.00
Ni180  Ni    0.52873   0.70167   0.47136   0.00000  Uiso   1.00
Ni181  Ni    0.52873   0.70167   0.52871   0.00000  Uiso   1.00
Ni182  Ni    0.47138   0.29845   0.52871   0.00000  Uiso   1.00
Ni183  Ni    0.47138   0.29845   0.47136   0.00000  Uiso   1.00
Ni184  Ni    0.52873   0.29845   0.52871   0.00000  Uiso   1.00
Ni185  Ni    0.52873   0.29845   0.47136   0.00000  Uiso   1.00
Ni186  Ni    0.38536   0.66135   0.44269   0.00000  Uiso   1.00
Ni187  Ni    0.38536   0.66135   0.55738   0.00000  Uiso   1.00
Ni188  Ni    0.38536   0.33877   0.55738   0.00000  Uiso   1.00
Ni189  Ni    0.38536   0.33877   0.44269   0.00000  Uiso   1.00
Ni190  Ni    0.44271   0.66135   0.38534   0.00000  Uiso   1.00
Ni191  Ni    0.44271   0.66135   0.61473   0.00000  Uiso   1.00
Ni192  Ni    0.44271   0.33877   0.38534   0.00000  Uiso   1.00
Ni193  Ni    0.44271   0.33877   0.61473   0.00000  Uiso   1.00
Ni194  Ni    0.55740   0.66135   0.38534   0.00000  Uiso   1.00
Ni195  Ni    0.55740   0.66135   0.61473   0.00000  Uiso   1.00
Ni196  Ni    0.55740   0.33877   0.61473   0.00000  Uiso   1.00
Ni197  Ni    0.55740   0.33877   0.38534   0.00000  Uiso   1.00
Ni198  Ni    0.61475   0.66135   0.55738   0.00000  Uiso   1.00
Ni199  Ni    0.61475   0.66135   0.44269   0.00000  Uiso   1.00
Ni200  Ni    0.61475   0.33877   0.44269   0.00000  Uiso   1.00
Ni201  Ni    0.61475   0.33877   0.55738   0.00000  Uiso   1.00
Ni202  Ni    0.35668   0.62102   0.41401   0.00000  Uiso   1.00
Ni203  Ni    0.35668   0.62102   0.58606   0.00000  Uiso   1.00
Ni204  Ni    0.41403   0.62102   0.64340   0.00000  Uiso   1.00
Ni205  Ni    0.41403   0.62102   0.35667   0.00000  Uiso   1.00
Ni206  Ni    0.58607   0.62102   0.64340   0.00000  Uiso   1.00
Ni207  Ni    0.58607   0.62102   0.35667   0.00000  Uiso   1.00
Ni208  Ni    0.35668   0.37909   0.41401   0.00000  Uiso   1.00
Ni209  Ni    0.35668   0.37909   0.58606   0.00000  Uiso   1.00
Ni210  Ni    0.64342   0.62102   0.58606   0.00000  Uiso   1.00
Ni211  Ni    0.64342   0.62102   0.41401   0.00000  Uiso   1.00
Ni212  Ni    0.41403   0.37909   0.35667   0.00000  Uiso   1.00
Ni213  Ni    0.41403   0.37909   0.64340   0.00000  Uiso   1.00
Ni214  Ni    0.58607   0.37909   0.64340   0.00000  Uiso   1.00
Ni215  Ni    0.58607   0.37909   0.35667   0.00000  Uiso   1.00
Ni216  Ni    0.64342   0.37909   0.58606   0.00000  Uiso   1.00
Ni217  Ni    0.64342   0.37909   0.41401   0.00000  Uiso   1.00
Ni218  Ni    0.35668   0.54038   0.35667   0.00000  Uiso   1.00
Ni219  Ni    0.35668   0.54038   0.64340   0.00000  Uiso   1.00
Ni220  Ni    0.29934   0.54038   0.52871   0.00000  Uiso   1.00
Ni221  Ni    0.29934   0.54038   0.47136   0.00000  Uiso   1.00
Ni222  Ni    0.35668   0.45973   0.35667   0.00000  Uiso   1.00
Ni223  Ni    0.35668   0.45973   0.64340   0.00000  Uiso   1.00
Ni224  Ni    0.29934   0.45973   0.47136   0.00000  Uiso   1.00
Ni225  Ni    0.29934   0.45973   0.52871   0.00000  Uiso   1.00
Ni226  Ni    0.52873   0.54038   0.70075   0.00000  Uiso   1.00
Ni227  Ni    0.52873   0.54038   0.29932   0.00000  Uiso   1.00
Ni228  Ni    0.52873   0.45973   0.70075   0.00000  Uiso   1.00
Ni229  Ni    0.52873   0.45973   0.29932   0.00000  Uiso   1.00
Ni230  Ni    0.47138   0.54038   0.70075   0.00000  Uiso   1.00
Ni231  Ni    0.47138   0.54038   0.29932   0.00000  Uiso   1.00
Ni232  Ni    0.47138   0.45973   0.29932   0.00000  Uiso   1.00
Ni233  Ni    0.47138   0.45973   0.70075   0.00000  Uiso   1.00
Ni234  Ni    0.70077   0.54038   0.52871   0.00000  Uiso   1.00
Ni235  Ni    0.70077   0.54038   0.47136   0.00000  Uiso   1.00
Ni236  Ni    0.64342   0.54038   0.64340   0.00000  Uiso   1.00
Ni237  Ni    0.64342   0.54038   0.35667   0.00000  Uiso   1.00
Ni238  Ni    0.70077   0.45973   0.52871   0.00000  Uiso   1.00
Ni239  Ni    0.70077   0.45973   0.47136   0.00000  Uiso   1.00
Ni240  Ni    0.64342   0.45973   0.64340   0.00000  Uiso   1.00
Ni241  Ni    0.64342   0.45973   0.35667   0.00000  Uiso   1.00
Ni242  Ni    0.32801   0.50006   0.38534   0.00000  Uiso   1.00
Ni243  Ni    0.32801   0.50006   0.61473   0.00000  Uiso   1.00
Ni244  Ni    0.38536   0.50006   0.32799   0.00000  Uiso   1.00
Ni245  Ni    0.38536   0.50006   0.67208   0.00000  Uiso   1.00
Ni246  Ni    0.61475   0.50006   0.67208   0.00000  Uiso   1.00
Ni247  Ni    0.61475   0.50006   0.32799   0.00000  Uiso   1.00
Ni248  Ni    0.67210   0.50006   0.61473   0.00000  Uiso   1.00
Ni249  Ni    0.67210   0.50006   0.38534   0.00000  Uiso   1.00
Ni250  Ni    0.41403   0.70167   0.52871   0.00000  Uiso   1.00
Ni251  Ni    0.41403   0.70167   0.47136   0.00000  Uiso   1.00
Ni252  Ni    0.52873   0.70167   0.58606   0.00000  Uiso   1.00
Ni253  Ni    0.52873   0.70167   0.41401   0.00000  Uiso   1.00
Ni254  Ni    0.47138   0.70167   0.41401   0.00000  Uiso   1.00
Ni255  Ni    0.47138   0.70167   0.58606   0.00000  Uiso   1.00
Ni256  Ni    0.58607   0.70167   0.47136   0.00000  Uiso   1.00
Ni257  Ni    0.58607   0.70167   0.52871   0.00000  Uiso   1.00
Ni258  Ni    0.41403   0.29845   0.47136   0.00000  Uiso   1.00
Ni259  Ni    0.41403   0.29845   0.52871   0.00000  Uiso   1.00
Ni260  Ni    0.52873   0.29845   0.58606   0.00000  Uiso   1.00
Ni261  Ni    0.52873   0.29845   0.41401   0.00000  Uiso   1.00
Ni262  Ni    0.47138   0.29845   0.41401   0.00000  Uiso   1.00
Ni263  Ni    0.47138   0.29845   0.58606   0.00000  Uiso   1.00
Ni264  Ni    0.58607   0.29845   0.47136   0.00000  Uiso   1.00
Ni265  Ni    0.58607   0.29845   0.52871   0.00000  Uiso   1.00
Ni266  Ni    0.29934   0.54038   0.41401   0.00000  Uiso   1.00
Ni267  Ni    0.29934   0.54038   0.58606   0.00000  Uiso   1.00
Ni268  Ni    0.29934   0.45973   0.41401   0.00000  Uiso   1.00
Ni269  Ni    0.29934   0.45973   0.58606   0.00000  Uiso   1.00
Ni270  Ni    0.41403   0.54038   0.70075   0.00000  Uiso   1.00
Ni271  Ni    0.41403   0.54038   0.29932   0.00000  Uiso   1.00
Ni272  Ni    0.41403   0.45973   0.70075   0.00000  Uiso   1.00
Ni273  Ni    0.41403   0.45973   0.29932   0.00000  Uiso   1.00
Ni274  Ni    0.58607   0.54038   0.70075   0.00000  Uiso   1.00
Ni275  Ni    0.58607   0.54038   0.29932   0.00000  Uiso   1.00
Ni276  Ni    0.58607   0.45973   0.70075   0.00000  Uiso   1.00
Ni277  Ni    0.58607   0.45973   0.29932   0.00000  Uiso   1.00
Ni278  Ni    0.70077   0.54038   0.58606   0.00000  Uiso   1.00
Ni279  Ni    0.70077   0.54038   0.41401   0.00000  Uiso   1.00
Ni280  Ni    0.70077   0.45973   0.58606   0.00000  Uiso   1.00
Ni281  Ni    0.70077   0.45973   0.41401   0.00000  Uiso   1.00
Ni282  Ni    0.41403   0.70167   0.58606   0.00000  Uiso   1.00
Ni283  Ni    0.41403   0.70167   0.41401   0.00000  Uiso   1.00
Ni284  Ni    0.58607   0.70167   0.41401   0.00000  Uiso   1.00
Ni285  Ni    0.58607   0.70167   0.58606   0.00000  Uiso   1.00
Ni286  Ni    0.41403   0.29845   0.58606   0.00000  Uiso   1.00
Ni287  Ni    0.41403   0.29845   0.41401   0.00000  Uiso   1.00
Ni288  Ni    0.58607   0.29845   0.58606   0.00000  Uiso   1.00
Ni289  Ni    0.58607   0.29845   0.41401   0.00000  Uiso   1.00
Ni290  Ni    0.32801   0.66135   0.50003   0.00000  Uiso   1.00
Ni291  Ni    0.32801   0.33877   0.50003   0.00000  Uiso   1.00
Ni292  Ni    0.50005   0.66135   0.67208   0.00000  Uiso   1.00
Ni293  Ni    0.50005   0.66135   0.32799   0.00000  Uiso   1.00
Ni294  Ni    0.50005   0.33877   0.67208   0.00000  Uiso   1.00
Ni295  Ni    0.50005   0.33877   0.32799   0.00000  Uiso   1.00
Ni296  Ni    0.67210   0.66135   0.50003   0.00000  Uiso   1.00
Ni297  Ni    0.67210   0.33877   0.50003   0.00000  Uiso   1.00
Ni298  Ni    0.35668   0.62102   0.35667   0.00000  Uiso   1.00
Ni299  Ni    0.35668   0.62102   0.64340   0.00000  Uiso   1.00
Ni300  Ni    0.29934   0.62102   0.47136   0.00000  Uiso   1.00
Ni301  Ni    0.29934   0.62102   0.52871   0.00000  Uiso   1.00
Ni302  Ni    0.52873   0.62102   0.70075   0.00000  Uiso   1.00
Ni303  Ni    0.52873   0.62102   0.29932   0.00000  Uiso   1.00
Ni304  Ni    0.35668   0.37909   0.64340   0.00000  Uiso   1.00
Ni305  Ni    0.35668   0.37909   0.35667   0.00000  Uiso   1.00
Ni306  Ni    0.29934   0.37909   0.47136   0.00000  Uiso   1.00
Ni307  Ni    0.29934   0.37909   0.52871   0.00000  Uiso   1.00
Ni308  Ni    0.47138   0.62102   0.29932   0.00000  Uiso   1.00
Ni309  Ni    0.47138   0.62102   0.70075   0.00000  Uiso   1.00
Ni310  Ni    0.52873   0.37909   0.29932   0.00000  Uiso   1.00
Ni311  Ni    0.52873   0.37909   0.70075   0.00000  Uiso   1.00
Ni312  Ni    0.70077   0.62102   0.52871   0.00000  Uiso   1.00
Ni313  Ni    0.70077   0.62102   0.47136   0.00000  Uiso   1.00
Ni314  Ni    0.64342   0.62102   0.64340   0.00000  Uiso   1.00
Ni315  Ni    0.64342   0.62102   0.35667   0.00000  Uiso   1.00
Ni316  Ni    0.47138   0.37909   0.29932   0.00000  Uiso   1.00
Ni317  Ni    0.47138   0.37909   0.70075   0.00000  Uiso   1.00
Ni318  Ni    0.70077   0.37909   0.52871   0.00000  Uiso   1.00
Ni319  Ni    0.70077   0.37909   0.47136   0.00000  Uiso   1.00
Ni320  Ni    0.64342   0.37909   0.64340   0.00000  Uiso   1.00
Ni321  Ni    0.64342   0.37909   0.35667   0.00000  Uiso   1.00
Ni322  Ni    0.27066   0.50006   0.44269   0.00000  Uiso   1.00
Ni323  Ni    0.27066   0.50006   0.55738   0.00000  Uiso   1.00
Ni324  Ni    0.44271   0.50006   0.72942   0.00000  Uiso   1.00
Ni325  Ni    0.44271   0.50006   0.27065   0.00000  Uiso   1.00
Ni326  Ni    0.55740   0.50006   0.72942   0.00000  Uiso   1.00
Ni327  Ni    0.55740   0.50006   0.27065   0.00000  Uiso   1.00
Ni328  Ni    0.72944   0.50006   0.55738   0.00000  Uiso   1.00
Ni329  Ni    0.72944   0.50006   0.44269   0.00000  Uiso   1.00
Ni330  Ni    0.50005   0.74199   0.50003   0.00000  Uiso   1.00
Ni331  Ni    0.50005   0.25812   0.50003   0.00000  Uiso   1.00
Ni332  Ni    0.27066   0.58070   0.50003   0.00000  Uiso   1.00
Ni333  Ni    0.27066   0.41941   0.50003   0.00000  Uiso   1.00
Ni334  Ni    0.50005   0.58070   0.27065   0.00000  Uiso   1.00
Ni335  Ni    0.50005   0.58070   0.72942   0.00000  Uiso   1.00
Ni336  Ni    0.50005   0.41941   0.72942   0.00000  Uiso   1.00
Ni337  Ni    0.50005   0.41941   0.27065   0.00000  Uiso   1.00
Ni338  Ni    0.72944   0.58070   0.50003   0.00000  Uiso   1.00
Ni339  Ni    0.72944   0.41941   0.50003   0.00000  Uiso   1.00
Ni340  Ni    0.35668   0.70167   0.52871   0.00000  Uiso   1.00
Ni341  Ni    0.35668   0.70167   0.47136   0.00000  Uiso   1.00
Ni342  Ni    0.47138   0.70167   0.64340   0.00000  Uiso   1.00
Ni343  Ni    0.47138   0.70167   0.35667   0.00000  Uiso   1.00
Ni344  Ni    0.52873   0.70167   0.35667   0.00000  Uiso   1.00
Ni345  Ni    0.52873   0.70167   0.64340   0.00000  Uiso   1.00
Ni346  Ni    0.35668   0.29845   0.52871   0.00000  Uiso   1.00
Ni347  Ni    0.35668   0.29845   0.47136   0.00000  Uiso   1.00
Ni348  Ni    0.64342   0.70167   0.52871   0.00000  Uiso   1.00
Ni349  Ni    0.64342   0.70167   0.47136   0.00000  Uiso   1.00
Ni350  Ni    0.47138   0.29845   0.64340   0.00000  Uiso   1.00
Ni351  Ni    0.47138   0.29845   0.35667   0.00000  Uiso   1.00
Ni352  Ni    0.52873   0.29845   0.35667   0.00000  Uiso   1.00
Ni353  Ni    0.52873   0.29845   0.64340   0.00000  Uiso   1.00
Ni354  Ni    0.64342   0.29845   0.52871   0.00000  Uiso   1.00
Ni355  Ni    0.64342   0.29845   0.47136   0.00000  Uiso   1.00
Ni356  Ni    0.29934   0.62102   0.41401   0.00000  Uiso   1.00
Ni357  Ni    0.29934   0.62102   0.58606   0.00000  Uiso   1.00
Ni358  Ni    0.41403   0.62102   0.70075   0.00000  Uiso   1.00
Ni359  Ni    0.41403   0.62102   0.29932   0.00000  Uiso   1.00
Ni360  Ni    0.29934   0.37909   0.58606   0.00000  Uiso   1.00
Ni361  Ni    0.29934   0.37909   0.41401   0.00000  Uiso   1.00
Ni362  Ni    0.41403   0.37909   0.70075   0.00000  Uiso   1.00
Ni363  Ni    0.41403   0.37909   0.29932   0.00000  Uiso   1.00
Ni364  Ni    0.58607   0.62102   0.70075   0.00000  Uiso   1.00
Ni365  Ni    0.58607   0.62102   0.29932   0.00000  Uiso   1.00
Ni366  Ni    0.70077   0.62102   0.58606   0.00000  Uiso   1.00
Ni367  Ni    0.70077   0.62102   0.41401   0.00000  Uiso   1.00
Ni368  Ni    0.58607   0.37909   0.70075   0.00000  Uiso   1.00
Ni369  Ni    0.58607   0.37909   0.29932   0.00000  Uiso   1.00
Ni370  Ni    0.70077   0.37909   0.58606   0.00000  Uiso   1.00
Ni371  Ni    0.70077   0.37909   0.41401   0.00000  Uiso   1.00
Ni372  Ni    0.29934   0.54038   0.35667   0.00000  Uiso   1.00
Ni373  Ni    0.29934   0.54038   0.64340   0.00000  Uiso   1.00
Ni374  Ni    0.29934   0.45973   0.35667   0.00000  Uiso   1.00
Ni375  Ni    0.29934   0.45973   0.64340   0.00000  Uiso   1.00
Ni376  Ni    0.35668   0.54038   0.29932   0.00000  Uiso   1.00
Ni377  Ni    0.35668   0.54038   0.70075   0.00000  Uiso   1.00
Ni378  Ni    0.35668   0.45973   0.29932   0.00000  Uiso   1.00
Ni379  Ni    0.35668   0.45973   0.70075   0.00000  Uiso   1.00
Ni380  Ni    0.64342   0.54038   0.70075   0.00000  Uiso   1.00
Ni381  Ni    0.64342   0.54038   0.29932   0.00000  Uiso   1.00
Ni382  Ni    0.64342   0.45973   0.70075   0.00000  Uiso   1.00
Ni383  Ni    0.64342   0.45973   0.29932   0.00000  Uiso   1.00
Ni384  Ni    0.70077   0.54038   0.64340   0.00000  Uiso   1.00
Ni385  Ni    0.70077   0.54038   0.35667   0.00000  Uiso   1.00
Ni386  Ni    0.70077   0.45973   0.64340   0.00000  Uiso   1.00
Ni387  Ni    0.70077   0.45973   0.35667   0.00000  Uiso   1.00
Ni388  Ni    0.44271   0.74199   0.44269   0.00000  Uiso   1.00
Ni389  Ni    0.44271   0.74199   0.55738   0.00000  Uiso   1.00
Ni390  Ni    0.55740   0.74199   0.44269   0.00000  Uiso   1.00
Ni391  Ni    0.55740   0.74199   0.55738   0.00000  Uiso   1.00
Ni392  Ni    0.44271   0.25812   0.44269   0.00000  Uiso   1.00
Ni393  Ni    0.44271   0.25812   0.55738   0.00000  Uiso   1.00
Ni394  Ni    0.55740   0.25812   0.44269   0.00000  Uiso   1.00
Ni395  Ni    0.55740   0.25812   0.55738   0.00000  Uiso   1.00
Ni396  Ni    0.32801   0.58070   0.32799   0.00000  Uiso   1.00
Ni397  Ni    0.32801   0.58070   0.67208   0.00000  Uiso   1.00
Ni398  Ni    0.32801   0.41941   0.32799   0.00000  Uiso   1.00
Ni399  Ni    0.32801   0.41941   0.67208   0.00000  Uiso   1.00
Ni400  Ni    0.67210   0.58070   0.67208   0.00000  Uiso   1.00
Ni401  Ni    0.67210   0.58070   0.32799   0.00000  Uiso   1.00
Ni402  Ni    0.67210   0.41941   0.67208   0.00000  Uiso   1.00
Ni403  Ni    0.67210   0.41941   0.32799   0.00000  Uiso   1.00
Ni404  Ni    0.35668   0.70167   0.41401   0.00000  Uiso   1.00
Ni405  Ni    0.35668   0.70167   0.58606   0.00000  Uiso   1.00
Ni406  Ni    0.41403   0.70167   0.35667   0.00000  Uiso   1.00
Ni407  Ni    0.41403   0.70167   0.64340   0.00000  Uiso   1.00
Ni408  Ni    0.58607   0.70167   0.64340   0.00000  Uiso   1.00
Ni409  Ni    0.58607   0.70167   0.35667   0.00000  Uiso   1.00
Ni410  Ni    0.64342   0.70167   0.58606   0.00000  Uiso   1.00
Ni411  Ni    0.64342   0.70167   0.41401   0.00000  Uiso   1.00
Ni412  Ni    0.35668   0.29845   0.58606   0.00000  Uiso   1.00
Ni413  Ni    0.35668   0.29845   0.41401   0.00000  Uiso   1.00
Ni414  Ni    0.41403   0.29845   0.35667   0.00000  Uiso   1.00
Ni415  Ni    0.41403   0.29845   0.64340   0.00000  Uiso   1.00
Ni416  Ni    0.58607   0.29845   0.64340   0.00000  Uiso   1.00
Ni417  Ni    0.58607   0.29845   0.35667   0.00000  Uiso   1.00
Ni418  Ni    0.64342   0.29845   0.41401   0.00000  Uiso   1.00
Ni419  Ni    0.64342   0.29845   0.58606   0.00000  Uiso   1.00
Ni420  Ni    0.32801   0.66135   0.61473   0.00000  Uiso   1.00
Ni421  Ni    0.32801   0.66135   0.38534   0.00000  Uiso   1.00
Ni422  Ni    0.32801   0.33877   0.61473   0.00000  Uiso   1.00
Ni423  Ni    0.32801   0.33877   0.38534   0.00000  Uiso   1.00
Ni424  Ni    0.38536   0.66135   0.67208   0.00000  Uiso   1.00
Ni425  Ni    0.38536   0.66135   0.32799   0.00000  Uiso   1.00
Ni426  Ni    0.38536   0.33877   0.67208   0.00000  Uiso   1.00
Ni427  Ni    0.38536   0.33877   0.32799   0.00000  Uiso   1.00
Ni428  Ni    0.61475   0.66135   0.32799   0.00000  Uiso   1.00
Ni429  Ni    0.61475   0.66135   0.67208   0.00000  Uiso   1.00
Ni430  Ni    0.61475   0.33877   0.67208   0.00000  Uiso   1.00
Ni431  Ni    0.61475   0.33877   0.32799   0.00000  Uiso   1.00
Ni432  Ni    0.67210   0.66135   0.61473   0.00000  Uiso   1.00
Ni433  Ni    0.67210   0.66135   0.38534   0.00000  Uiso   1.00
Ni434  Ni    0.67210   0.33877   0.61473   0.00000  Uiso   1.00
Ni435  Ni    0.67210   0.33877   0.38534   0.00000  Uiso   1.00
Ni436  Ni    0.24199   0.54038   0.47136   0.00000  Uiso   1.00
Ni437  Ni    0.24199   0.54038   0.52871   0.00000  Uiso   1.00
Ni438  Ni    0.24199   0.45973   0.47136   0.00000  Uiso   1.00
Ni439  Ni    0.24199   0.45973   0.52871   0.00000  Uiso   1.00
Ni440  Ni    0.47138   0.54038   0.75810   0.00000  Uiso   1.00
Ni441  Ni    0.47138   0.54038   0.24197   0.00000  Uiso   1.00
Ni442  Ni    0.47138   0.45973   0.75810   0.00000  Uiso   1.00
Ni443  Ni    0.47138   0.45973   0.24197   0.00000  Uiso   1.00
Ni444  Ni    0.52873   0.54038   0.75810   0.00000  Uiso   1.00
Ni445  Ni    0.52873   0.54038   0.24197   0.00000  Uiso   1.00
Ni446  Ni    0.52873   0.45973   0.75810   0.00000  Uiso   1.00
Ni447  Ni    0.52873   0.45973   0.24197   0.00000  Uiso   1.00
Ni448  Ni    0.75812   0.54038   0.47136   0.00000  Uiso   1.00
Ni449  Ni    0.75812   0.54038   0.52871   0.00000  Uiso   1.00
Ni450  Ni    0.75812   0.45973   0.47136   0.00000  Uiso   1.00
Ni451  Ni    0.75812   0.45973   0.52871   0.00000  Uiso   1.00
Ni452  Ni    0.38536   0.74199   0.50003   0.00000  Uiso   1.00
Ni453  Ni    0.50005   0.74199   0.38534   0.00000  Uiso   1.00
Ni454  Ni    0.50005   0.74199   0.61473   0.00000  Uiso   1.00
Ni455  Ni    0.61475   0.74199   0.50003   0.00000  Uiso   1.00
Ni456  Ni    0.38536   0.25812   0.50003   0.00000  Uiso   1.00
Ni457  Ni    0.50005   0.25812   0.38534   0.00000  Uiso   1.00
Ni458  Ni    0.50005   0.25812   0.61473   0.00000  Uiso   1.00
Ni459  Ni    0.61475   0.25812   0.50003   0.00000  Uiso   1.00
Ni460  Ni    0.27066   0.58070   0.38534   0.00000  Uiso   1.00
Ni461  Ni    0.27066   0.58070   0.61473   0.00000  Uiso   1.00
Ni462  Ni    0.38536   0.58070   0.72942   0.00000  Uiso   1.00
Ni463  Ni    0.38536   0.58070   0.27065   0.00000  Uiso   1.00
Ni464  Ni    0.27066   0.41941   0.38534   0.00000  Uiso   1.00
Ni465  Ni    0.27066   0.41941   0.61473   0.00000  Uiso   1.00
Ni466  Ni    0.38536   0.41941   0.27065   0.00000  Uiso   1.00
Ni467  Ni    0.38536   0.41941   0.72942   0.00000  Uiso   1.00
Ni468  Ni    0.61475   0.58070   0.72942   0.00000  Uiso   1.00
Ni469  Ni    0.61475   0.58070   0.27065   0.00000  Uiso   1.00
Ni470  Ni    0.72944   0.58070   0.38534   0.00000  Uiso   1.00
Ni471  Ni    0.72944   0.58070   0.61473   0.00000  Uiso   1.00
Ni472  Ni    0.61475   0.41941   0.72942   0.00000  Uiso   1.00
Ni473  Ni    0.61475   0.41941   0.27065   0.00000  Uiso   1.00
Ni474  Ni    0.72944   0.41941   0.38534   0.00000  Uiso   1.00
Ni475  Ni    0.72944   0.41941   0.61473   0.00000  Uiso   1.00
Ni476  Ni    0.29934   0.62102   0.35667   0.00000  Uiso   1.00
Ni477  Ni    0.29934   0.62102   0.64340   0.00000  Uiso   1.00
Ni478  Ni    0.35668   0.62102   0.29932   0.00000  Uiso   1.00
Ni479  Ni    0.35668   0.62102   0.70075   0.00000  Uiso   1.00
Ni480  Ni    0.29934   0.37909   0.35667   0.00000  Uiso   1.00
Ni481  Ni    0.29934   0.37909   0.64340   0.00000  Uiso   1.00
Ni482  Ni    0.64342   0.62102   0.70075   0.00000  Uiso   1.00
Ni483  Ni    0.64342   0.62102   0.29932   0.00000  Uiso   1.00
Ni484  Ni    0.35668   0.37909   0.29932   0.00000  Uiso   1.00
Ni485  Ni    0.35668   0.37909   0.70075   0.00000  Uiso   1.00
Ni486  Ni    0.70077   0.62102   0.64340   0.00000  Uiso   1.00
Ni487  Ni    0.70077   0.62102   0.35667   0.00000  Uiso   1.00
Ni488  Ni    0.64342   0.37909   0.70075   0.00000  Uiso   1.00
Ni489  Ni    0.64342   0.37909   0.29932   0.00000  Uiso   1.00
Ni490  Ni    0.70077   0.37909   0.64340   0.00000  Uiso   1.00
Ni491  Ni    0.70077   0.37909   0.35667   0.00000  Uiso   1.00
Ni492  Ni    0.24199   0.54038   0.41401   0.00000  Uiso   1.00
Ni493  Ni    0.24199   0.54038   0.58606   0.00000  Uiso   1.00
Ni494  Ni    0.24199   0.45973   0.41401   0.00000  Uiso   1.00
Ni495  Ni    0.24199   0.45973   0.58606   0.00000  Uiso   1.00
Ni496  Ni    0.58607   0.54038   0.75810   0.00000  Uiso   1.00
Ni497  Ni    0.58607   0.54038   0.24197   0.00000  Uiso   1.00
Ni498  Ni    0.41403   0.54038   0.75810   0.00000  Uiso   1.00
Ni499  Ni    0.41403   0.54038   0.24197   0.00000  Uiso   1.00
Ni500  Ni    0.58607   0.45973   0.75810   0.00000  Uiso   1.00
Ni501  Ni    0.58607   0.45973   0.24197   0.00000  Uiso   1.00
Ni502  Ni    0.41403   0.45973   0.75810   0.00000  Uiso   1.00
Ni503  Ni    0.41403   0.45973   0.24197   0.00000  Uiso   1.00
Ni504  Ni    0.75812   0.54038   0.58606   0.00000  Uiso   1.00
Ni505  Ni    0.75812   0.54038   0.41401   0.00000  Uiso   1.00
Ni506  Ni    0.75812   0.45973   0.58606   0.00000  Uiso   1.00
Ni507  Ni    0.75812   0.45973   0.41401   0.00000  Uiso   1.00
Ni508  Ni    0.47138   0.78231   0.52871   0.00000  Uiso   1.00
Ni509  Ni    0.47138   0.78231   0.47136   0.00000  Uiso   1.00
Ni510  Ni    0.52873   0.78231   0.47136   0.00000  Uiso   1.00
Ni511  Ni    0.52873   0.78231   0.52871   0.00000  Uiso   1.00
Ni512  Ni    0.47138   0.21780   0.52871   0.00000  Uiso   1.00
Ni513  Ni    0.47138   0.21780   0.47136   0.00000  Uiso   1.00
Ni514  Ni    0.52873   0.21780   0.47136   0.00000  Uiso   1.00
Ni515  Ni    0.52873   0.21780   0.52871   0.00000  Uiso   1.00
Ni516  Ni    0.35668   0.70167   0.35667   0.00000  Uiso   1.00
Ni517  Ni    0.35668   0.70167   0.64340   0.00000  Uiso   1.00
Ni518  Ni    0.29934   0.70167   0.52871   0.00000  Uiso   1.00
Ni519  Ni    0.29934   0.70167   0.47136   0.00000  Uiso   1.00
Ni520  Ni    0.52873   0.70167   0.70075   0.00000  Uiso   1.00
Ni521  Ni    0.52873   0.70167   0.29932   0.00000  Uiso   1.00
Ni522  Ni    0.47138   0.70167   0.29932   0.00000  Uiso   1.00
Ni523  Ni    0.47138   0.70167   0.70075   0.00000  Uiso   1.00
Ni524  Ni    0.35668   0.29845   0.64340   0.00000  Uiso   1.00
Ni525  Ni    0.35668   0.29845   0.35667   0.00000  Uiso   1.00
Ni526  Ni    0.29934   0.29845   0.47136   0.00000  Uiso   1.00
Ni527  Ni    0.29934   0.29845   0.52871   0.00000  Uiso   1.00
Ni528  Ni    0.70077   0.70167   0.52871   0.00000  Uiso   1.00
Ni529  Ni    0.70077   0.70167   0.47136   0.00000  Uiso   1.00
Ni530  Ni    0.64342   0.70167   0.64340   0.00000  Uiso   1.00
Ni531  Ni    0.64342   0.70167   0.35667   0.00000  Uiso   1.00
Ni532  Ni    0.52873   0.29845   0.70075   0.00000  Uiso   1.00
Ni533  Ni    0.52873   0.29845   0.29932   0.00000  Uiso   1.00
Ni534  Ni    0.47138   0.29845   0.70075   0.00000  Uiso   1.00
Ni535  Ni    0.47138   0.29845   0.29932   0.00000  Uiso   1.00
Ni536  Ni    0.70077   0.29845   0.52871   0.00000  Uiso   1.00
Ni537  Ni    0.70077   0.29845   0.47136   0.00000  Uiso   1.00
Ni538  Ni    0.64342   0.29845   0.35667   0.00000  Uiso   1.00
Ni539  Ni    0.64342   0.29845   0.64340   0.00000  Uiso   1.00
Ni540  Ni    0.27066   0.66135   0.44269   0.00000  Uiso   1.00
Ni541  Ni    0.27066   0.66135   0.55738   0.00000  Uiso   1.00
Ni542  Ni    0.27066   0.33877   0.44269   0.00000  Uiso   1.00
Ni543  Ni    0.27066   0.33877   0.55738   0.00000  Uiso   1.00
Ni544  Ni    0.44271   0.66135   0.72942   0.00000  Uiso   1.00
Ni545  Ni    0.44271   0.66135   0.27065   0.00000  Uiso   1.00
Ni546  Ni    0.44271   0.33877   0.27065   0.00000  Uiso   1.00
Ni547  Ni    0.44271   0.33877   0.72942   0.00000  Uiso   1.00
Ni548  Ni    0.55740   0.66135   0.72942   0.00000  Uiso   1.00
Ni549  Ni    0.55740   0.66135   0.27065   0.00000  Uiso   1.00
Ni550  Ni    0.55740   0.33877   0.72942   0.00000  Uiso   1.00
Ni551  Ni    0.55740   0.33877   0.27065   0.00000  Uiso   1.00
Ni552  Ni    0.72944   0.66135   0.55738   0.00000  Uiso   1.00
Ni553  Ni    0.72944   0.66135   0.44269   0.00000  Uiso   1.00
Ni554  Ni    0.72944   0.33877   0.55738   0.00000  Uiso   1.00
Ni555  Ni    0.72944   0.33877   0.44269   0.00000  Uiso   1.00
Ni556  Ni    0.24199   0.62102   0.47136   0.00000  Uiso   1.00
Ni557  Ni    0.24199   0.62102   0.52871   0.00000  Uiso   1.00
Ni558  Ni    0.47138   0.62102   0.75810   0.00000  Uiso   1.00
Ni559  Ni    0.47138   0.62102   0.24197   0.00000  Uiso   1.00
Ni560  Ni    0.24199   0.37909   0.47136   0.00000  Uiso   1.00
Ni561  Ni    0.24199   0.37909   0.52871   0.00000  Uiso   1.00
Ni562  Ni    0.47138   0.37909   0.75810   0.00000  Uiso   1.00
Ni563  Ni    0.47138   0.37909   0.24197   0.00000  Uiso   1.00
Ni564  Ni    0.52873   0.62102   0.75810   0.00000  Uiso   1.00
Ni565  Ni    0.52873   0.62102   0.24197   0.00000  Uiso   1.00
Ni566  Ni    0.75812   0.62102   0.47136   0.00000  Uiso   1.00
Ni567  Ni    0.75812   0.62102   0.52871   0.00000  Uiso   1.00
Ni568  Ni    0.52873   0.37909   0.75810   0.00000  Uiso   1.00
Ni569  Ni    0.52873   0.37909   0.24197   0.00000  Uiso   1.00
Ni570  Ni    0.75812   0.37909   0.52871   0.00000  Uiso   1.00
Ni571  Ni    0.75812   0.37909   0.47136   0.00000  Uiso   1.00
Ni572  Ni    0.29934   0.54038   0.70075   0.00000  Uiso   1.00
Ni573  Ni    0.29934   0.54038   0.29932   0.00000  Uiso   1.00
Ni574  Ni    0.29934   0.45973   0.29932   0.00000  Uiso   1.00
Ni575  Ni    0.29934   0.45973   0.70075   0.00000  Uiso   1.00
Ni576  Ni    0.70077   0.54038   0.70075   0.00000  Uiso   1.00
Ni577  Ni    0.70077   0.54038   0.29932   0.00000  Uiso   1.00
Ni578  Ni    0.70077   0.45973   0.70075   0.00000  Uiso   1.00
Ni579  Ni    0.70077   0.45973   0.29932   0.00000  Uiso   1.00
Ni580  Ni    0.21332   0.50006   0.50003   0.00000  Uiso   1.00
Ni581  Ni    0.27066   0.50006   0.32799   0.00000  Uiso   1.00
Ni582  Ni    0.27066   0.50006   0.67208   0.00000  Uiso   1.00
Ni583  Ni    0.32801   0.50006   0.27065   0.00000  Uiso   1.00
Ni584  Ni    0.32801   0.50006   0.72942   0.00000  Uiso   1.00
Ni585  Ni    0.50005   0.50006   0.78677   0.00000  Uiso   1.00
Ni586  Ni    0.50005   0.50006   0.21330   0.00000  Uiso   1.00
Ni587  Ni    0.67210   0.50006   0.72942   0.00000  Uiso   1.00
Ni588  Ni    0.67210   0.50006   0.27065   0.00000  Uiso   1.00
Ni589  Ni    0.72944   0.50006   0.67208   0.00000  Uiso   1.00
Ni590  Ni    0.72944   0.50006   0.32799   0.00000  Uiso   1.00
Ni591  Ni    0.78679   0.50006   0.50003   0.00000  Uiso   1.00
Ni592  Ni    0.38536   0.74199   0.38534   0.00000  Uiso   1.00
Ni593  Ni    0.38536   0.74199   0.61473   0.00000  Uiso   1.00
Ni594  Ni    0.61475   0.74199   0.61473   0.00000  Uiso   1.00
Ni595  Ni    0.61475   0.74199   0.38534   0.00000  Uiso   1.00
Ni596  Ni    0.38536   0.25812   0.61473   0.00000  Uiso   1.00
Ni597  Ni    0.38536   0.25812   0.38534   0.00000  Uiso   1.00
Ni598  Ni    0.61475   0.25812   0.61473   0.00000  Uiso   1.00
Ni599  Ni    0.61475   0.25812   0.38534   0.00000  Uiso   1.00
Ni600  Ni    0.41403   0.78231   0.47136   0.00000  Uiso   1.00
Ni601  Ni    0.41403   0.78231   0.52871   0.00000  Uiso   1.00
Ni602  Ni    0.52873   0.78231   0.58606   0.00000  Uiso   1.00
Ni603  Ni    0.52873   0.78231   0.41401   0.00000  Uiso   1.00
Ni604  Ni    0.47138   0.78231   0.41401   0.00000  Uiso   1.00
Ni605  Ni    0.47138   0.78231   0.58606   0.00000  Uiso   1.00
Ni606  Ni    0.58607   0.78231   0.52871   0.00000  Uiso   1.00
Ni607  Ni    0.58607   0.78231   0.47136   0.00000  Uiso   1.00
Ni608  Ni    0.41403   0.21780   0.52871   0.00000  Uiso   1.00
Ni609  Ni    0.41403   0.21780   0.47136   0.00000  Uiso   1.00
Ni610  Ni    0.52873   0.21780   0.41401   0.00000  Uiso   1.00
Ni611  Ni    0.52873   0.21780   0.58606   0.00000  Uiso   1.00
Ni612  Ni    0.47138   0.21780   0.41401   0.00000  Uiso   1.00
Ni613  Ni    0.47138   0.21780   0.58606   0.00000  Uiso   1.00
Ni614  Ni    0.58607   0.21780   0.47136   0.00000  Uiso   1.00
Ni615  Ni    0.58607   0.21780   0.52871   0.00000  Uiso   1.00
Ni616  Ni    0.29934   0.70167   0.41401   0.00000  Uiso   1.00
Ni617  Ni    0.29934   0.70167   0.58606   0.00000  Uiso   1.00
Ni618  Ni    0.41403   0.70167   0.70075   0.00000  Uiso   1.00
Ni619  Ni    0.41403   0.70167   0.29932   0.00000  Uiso   1.00
Ni620  Ni    0.29934   0.29845   0.41401   0.00000  Uiso   1.00
Ni621  Ni    0.29934   0.29845   0.58606   0.00000  Uiso   1.00
Ni622  Ni    0.41403   0.29845   0.70075   0.00000  Uiso   1.00
Ni623  Ni    0.41403   0.29845   0.29932   0.00000  Uiso   1.00
Ni624  Ni    0.58607   0.70167   0.70075   0.00000  Uiso   1.00
Ni625  Ni    0.58607   0.70167   0.29932   0.00000  Uiso   1.00
Ni626  Ni    0.70077   0.70167   0.58606   0.00000  Uiso   1.00
Ni627  Ni    0.70077   0.70167   0.41401   0.00000  Uiso   1.00
Ni628  Ni    0.58607   0.29845   0.70075   0.00000  Uiso   1.00
Ni629  Ni    0.58607   0.29845   0.29932   0.00000  Uiso   1.00
Ni630  Ni    0.70077   0.29845   0.58606   0.00000  Uiso   1.00
Ni631  Ni    0.70077   0.29845   0.41401   0.00000  Uiso   1.00
Ni632  Ni    0.24199   0.62102   0.41401   0.00000  Uiso   1.00
Ni633  Ni    0.24199   0.62102   0.58606   0.00000  Uiso   1.00
Ni634  Ni    0.24199   0.37909   0.41401   0.00000  Uiso   1.00
Ni635  Ni    0.24199   0.37909   0.58606   0.00000  Uiso   1.00
Ni636  Ni    0.58607   0.62102   0.75810   0.00000  Uiso   1.00
Ni637  Ni    0.58607   0.62102   0.24197   0.00000  Uiso   1.00
Ni638  Ni    0.41403   0.62102   0.24197   0.00000  Uiso   1.00
Ni639  Ni    0.41403   0.62102   0.75810   0.00000  Uiso   1.00
Ni640  Ni    0.58607   0.37909   0.75810   0.00000  Uiso   1.00
Ni641  Ni    0.58607   0.37909   0.24197   0.00000  Uiso   1.00
Ni642  Ni    0.41403   0.37909   0.75810   0.00000  Uiso   1.00
Ni643  Ni    0.41403   0.37909   0.24197   0.00000  Uiso   1.00
Ni644  Ni    0.75812   0.62102   0.58606   0.00000  Uiso   1.00
Ni645  Ni    0.75812   0.62102   0.41401   0.00000  Uiso   1.00
Ni646  Ni    0.75812   0.37909   0.58606   0.00000  Uiso   1.00
Ni647  Ni    0.75812   0.37909   0.41401   0.00000  Uiso   1.00
Ni648  Ni    0.24199   0.54038   0.35667   0.00000  Uiso   1.00
Ni649  Ni    0.24199   0.54038   0.64340   0.00000  Uiso   1.00
Ni650  Ni    0.24199   0.45973   0.35667   0.00000  Uiso   1.00
Ni651  Ni    0.24199   0.45973   0.64340   0.00000  Uiso   1.00
Ni652  Ni    0.35668   0.54038   0.75810   0.00000  Uiso   1.00
Ni653  Ni    0.35668   0.54038   0.24197   0.00000  Uiso   1.00
Ni654  Ni    0.35668   0.45973   0.75810   0.00000  Uiso   1.00
Ni655  Ni    0.35668   0.45973   0.24197   0.00000  Uiso   1.00
Ni656  Ni    0.64342   0.54038   0.75810   0.00000  Uiso   1.00
Ni657  Ni    0.64342   0.54038   0.24197   0.00000  Uiso   1.00
Ni658  Ni    0.64342   0.45973   0.75810   0.00000  Uiso   1.00
Ni659  Ni    0.64342   0.45973   0.24197   0.00000  Uiso   1.00
Ni660  Ni    0.75812   0.54038   0.64340   0.00000  Uiso   1.00
Ni661  Ni    0.75812   0.54038   0.35667   0.00000  Uiso   1.00
Ni662  Ni    0.75812   0.45973   0.64340   0.00000  Uiso   1.00
Ni663  Ni    0.75812   0.45973   0.35667   0.00000  Uiso   1.00
Ni664  Ni    0.32801   0.74199   0.44269   0.00000  Uiso   1.00
Ni665  Ni    0.32801   0.74199   0.55738   0.00000  Uiso   1.00
Ni666  Ni    0.44271   0.74199   0.67208   0.00000  Uiso   1.00
Ni667  Ni    0.44271   0.74199   0.32799   0.00000  Uiso   1.00
Ni668  Ni    0.55740   0.74199   0.67208   0.00000  Uiso   1.00
Ni669  Ni    0.55740   0.74199   0.32799   0.00000  Uiso   1.00
Ni670  Ni    0.67210   0.74199   0.55738   0.00000  Uiso   1.00
Ni671  Ni    0.67210   0.74199   0.44269   0.00000  Uiso   1.00
Ni672  Ni    0.32801   0.25812   0.44269   0.00000  Uiso   1.00
Ni673  Ni    0.32801   0.25812   0.55738   0.00000  Uiso   1.00
Ni674  Ni    0.44271   0.25812   0.32799   0.00000  Uiso   1.00
Ni675  Ni    0.44271   0.25812   0.67208   0.00000  Uiso   1.00
Ni676  Ni    0.55740   0.25812   0.67208   0.00000  Uiso   1.00
Ni677  Ni    0.55740   0.25812   0.32799   0.00000  Uiso   1.00
Ni678  Ni    0.67210   0.25812   0.55738   0.00000  Uiso   1.00
Ni679  Ni    0.67210   0.25812   0.44269   0.00000  Uiso   1.00
Ni680  Ni    0.21332   0.58070   0.44269   0.00000  Uiso   1.00
Ni681  Ni    0.21332   0.58070   0.55738   0.00000  Uiso   1.00
Ni682  Ni    0.21332   0.41941   0.44269   0.00000  Uiso   1.00
Ni683  Ni    0.21332   0.41941   0.55738   0.00000  Uiso   1.00
Ni684  Ni    0.44271   0.58070   0.78677   0.00000  Uiso   1.00
Ni685  Ni    0.44271   0.58070   0.21330   0.00000  Uiso   1.00
Ni686  Ni    0.55740   0.58070   0.78677   0.00000  Uiso   1.00
Ni687  Ni    0.55740   0.58070   0.21330   0.00000  Uiso   1.00
Ni688  Ni    0.44271   0.41941   0.21330   0.00000  Uiso   1.00
Ni689  Ni    0.44271   0.41941   0.78677   0.00000  Uiso   1.00
Ni690  Ni    0.55740   0.41941   0.21330   0.00000  Uiso   1.00
Ni691  Ni    0.55740   0.41941   0.78677   0.00000  Uiso   1.00
Ni692  Ni    0.78679   0.58070   0.44269   0.00000  Uiso   1.00
Ni693  Ni    0.78679   0.58070   0.55738   0.00000  Uiso   1.00
Ni694  Ni    0.78679   0.41941   0.55738   0.00000  Uiso   1.00
Ni695  Ni    0.78679   0.41941   0.44269   0.00000  Uiso   1.00
Ni696  Ni    0.41403   0.78231   0.58606   0.00000  Uiso   1.00
Ni697  Ni    0.41403   0.78231   0.41401   0.00000  Uiso   1.00
Ni698  Ni    0.58607   0.78231   0.58606   0.00000  Uiso   1.00
Ni699  Ni    0.58607   0.78231   0.41401   0.00000  Uiso   1.00
Ni700  Ni    0.41403   0.21780   0.58606   0.00000  Uiso   1.00
Ni701  Ni    0.41403   0.21780   0.41401   0.00000  Uiso   1.00
Ni702  Ni    0.58607   0.21780   0.41401   0.00000  Uiso   1.00
Ni703  Ni    0.58607   0.21780   0.58606   0.00000  Uiso   1.00
Ni704  Ni    0.29934   0.62102   0.29932   0.00000  Uiso   1.00
Ni705  Ni    0.29934   0.62102   0.70075   0.00000  Uiso   1.00
Ni706  Ni    0.29934   0.37909   0.29932   0.00000  Uiso   1.00
Ni707  Ni    0.29934   0.37909   0.70075   0.00000  Uiso   1.00
Ni708  Ni    0.70077   0.62102   0.70075   0.00000  Uiso   1.00
Ni709  Ni    0.70077   0.62102   0.29932   0.00000  Uiso   1.00
Ni710  Ni    0.70077   0.37909   0.70075   0.00000  Uiso   1.00
Ni711  Ni    0.70077   0.37909   0.29932   0.00000  Uiso   1.00
Ni712  Ni    0.21332   0.50006   0.38534   0.00000  Uiso   1.00
Ni713  Ni    0.21332   0.50006   0.61473   0.00000  Uiso   1.00
Ni714  Ni    0.38536   0.50006   0.78677   0.00000  Uiso   1.00
Ni715  Ni    0.38536   0.50006   0.21330   0.00000  Uiso   1.00
Ni716  Ni    0.61475   0.50006   0.78677   0.00000  Uiso   1.00
Ni717  Ni    0.61475   0.50006   0.21330   0.00000  Uiso   1.00
Ni718  Ni    0.78679   0.50006   0.61473   0.00000  Uiso   1.00
Ni719  Ni    0.78679   0.50006   0.38534   0.00000  Uiso   1.00
Ni720  Ni    0.35668   0.78231   0.47136   0.00000  Uiso   1.00
Ni721  Ni    0.35668   0.78231   0.52871   0.00000  Uiso   1.00
Ni722  Ni    0.47138   0.78231   0.64340   0.00000  Uiso   1.00
Ni723  Ni    0.47138   0.78231   0.35667   0.00000  Uiso   1.00
Ni724  Ni    0.52873   0.78231   0.35667   0.00000  Uiso   1.00
Ni725  Ni    0.52873   0.78231   0.64340   0.00000  Uiso   1.00
Ni726  Ni    0.64342   0.78231   0.52871   0.00000  Uiso   1.00
Ni727  Ni    0.64342   0.78231   0.47136   0.00000  Uiso   1.00
Ni728  Ni    0.35668   0.21780   0.52871   0.00000  Uiso   1.00
Ni729  Ni    0.35668   0.21780   0.47136   0.00000  Uiso   1.00
Ni730  Ni    0.47138   0.21780   0.64340   0.00000  Uiso   1.00
Ni731  Ni    0.47138   0.21780   0.35667   0.00000  Uiso   1.00
Ni732  Ni    0.52873   0.21780   0.35667   0.00000  Uiso   1.00
Ni733  Ni    0.52873   0.21780   0.64340   0.00000  Uiso   1.00
Ni734  Ni    0.64342   0.21780   0.52871   0.00000  Uiso   1.00
Ni735  Ni    0.64342   0.21780   0.47136   0.00000  Uiso   1.00
Ni736  Ni    0.29934   0.70167   0.35667   0.00000  Uiso   1.00
Ni737  Ni    0.29934   0.70167   0.64340   0.00000  Uiso   1.00
Ni738  Ni    0.35668   0.70167   0.29932   0.00000  Uiso   1.00
Ni739  Ni    0.35668   0.70167   0.70075   0.00000  Uiso   1.00
Ni740  Ni    0.64342   0.70167   0.70075   0.00000  Uiso   1.00
Ni741  Ni    0.64342   0.70167   0.29932   0.00000  Uiso   1.00
Ni742  Ni    0.29934   0.29845   0.35667   0.00000  Uiso   1.00
Ni743  Ni    0.29934   0.29845   0.64340   0.00000  Uiso   1.00
Ni744  Ni    0.70077   0.70167   0.64340   0.00000  Uiso   1.00
Ni745  Ni    0.70077   0.70167   0.35667   0.00000  Uiso   1.00
Ni746  Ni    0.35668   0.29845   0.70075   0.00000  Uiso   1.00
Ni747  Ni    0.35668   0.29845   0.29932   0.00000  Uiso   1.00
Ni748  Ni    0.64342   0.29845   0.70075   0.00000  Uiso   1.00
Ni749  Ni    0.64342   0.29845   0.29932   0.00000  Uiso   1.00
Ni750  Ni    0.70077   0.29845   0.64340   0.00000  Uiso   1.00
Ni751  Ni    0.70077   0.29845   0.35667   0.00000  Uiso   1.00
Ni752  Ni    0.24199   0.62102   0.35667   0.00000  Uiso   1.00
Ni753  Ni    0.24199   0.62102   0.64340   0.00000  Uiso   1.00
Ni754  Ni    0.35668   0.62102   0.75810   0.00000  Uiso   1.00
Ni755  Ni    0.35668   0.62102   0.24197   0.00000  Uiso   1.00
Ni756  Ni    0.24199   0.37909   0.35667   0.00000  Uiso   1.00
Ni757  Ni    0.24199   0.37909   0.64340   0.00000  Uiso   1.00
Ni758  Ni    0.35668   0.37909   0.75810   0.00000  Uiso   1.00
Ni759  Ni    0.35668   0.37909   0.24197   0.00000  Uiso   1.00
Ni760  Ni    0.64342   0.62102   0.75810   0.00000  Uiso   1.00
Ni761  Ni    0.64342   0.62102   0.24197   0.00000  Uiso   1.00
Ni762  Ni    0.75812   0.62102   0.64340   0.00000  Uiso   1.00
Ni763  Ni    0.75812   0.62102   0.35667   0.00000  Uiso   1.00
Ni764  Ni    0.64342   0.37909   0.75810   0.00000  Uiso   1.00
Ni765  Ni    0.64342   0.37909   0.24197   0.00000  Uiso   1.00
Ni766  Ni    0.75812   0.37909   0.64340   0.00000  Uiso   1.00
Ni767  Ni    0.75812   0.37909   0.35667   0.00000  Uiso   1.00
Ni768  Ni    0.18464   0.54038   0.47136   0.00000  Uiso   1.00
Ni769  Ni    0.18464   0.54038   0.52871   0.00000  Uiso   1.00
Ni770  Ni    0.18464   0.45973   0.47136   0.00000  Uiso   1.00
Ni771  Ni    0.18464   0.45973   0.52871   0.00000  Uiso   1.00
Ni772  Ni    0.52873   0.54038   0.18462   0.00000  Uiso   1.00
Ni773  Ni    0.52873   0.54038   0.81545   0.00000  Uiso   1.00
Ni774  Ni    0.52873   0.45973   0.81545   0.00000  Uiso   1.00
Ni775  Ni    0.52873   0.45973   0.18462   0.00000  Uiso   1.00
Ni776  Ni    0.47138   0.54038   0.81545   0.00000  Uiso   1.00
Ni777  Ni    0.47138   0.54038   0.18462   0.00000  Uiso   1.00
Ni778  Ni    0.47138   0.45973   0.81545   0.00000  Uiso   1.00
Ni779  Ni    0.47138   0.45973   0.18462   0.00000  Uiso   1.00
Ni780  Ni    0.81546   0.54038   0.47136   0.00000  Uiso   1.00
Ni781  Ni    0.81546   0.54038   0.52871   0.00000  Uiso   1.00
Ni782  Ni    0.81546   0.45973   0.52871   0.00000  Uiso   1.00
Ni783  Ni    0.81546   0.45973   0.47136   0.00000  Uiso   1.00
Ni784  Ni    0.44271   0.82263   0.50003   0.00000  Uiso   1.00
Ni785  Ni    0.50005   0.82263   0.55738   0.00000  Uiso   1.00
Ni786  Ni    0.50005   0.82263   0.44269   0.00000  Uiso   1.00
Ni787  Ni    0.44271   0.17748   0.50003   0.00000  Uiso   1.00
Ni788  Ni    0.55740   0.82263   0.50003   0.00000  Uiso   1.00
Ni789  Ni    0.50005   0.17748   0.55738   0.00000  Uiso   1.00
Ni790  Ni    0.50005   0.17748   0.44269   0.00000  Uiso   1.00
Ni791  Ni    0.55740   0.17748   0.50003   0.00000  Uiso   1.00
Ni792  Ni    0.35668   0.78231   0.58606   0.00000  Uiso   1.00
Ni793  Ni    0.35668   0.78231   0.41401   0.00000  Uiso   1.00
Ni794  Ni    0.41403   0.78231   0.35667   0.00000  Uiso   1.00
Ni795  Ni    0.41403   0.78231   0.64340   0.00000  Uiso   1.00
Ni796  Ni    0.58607   0.78231   0.64340   0.00000  Uiso   1.00
Ni797  Ni    0.58607   0.78231   0.35667   0.00000  Uiso   1.00
Ni798  Ni    0.64342   0.78231   0.58606   0.00000  Uiso   1.00
Ni799  Ni    0.64342   0.78231   0.41401   0.00000  Uiso   1.00
Ni800  Ni    0.35668   0.21780   0.58606   0.00000  Uiso   1.00
Ni801  Ni    0.35668   0.21780   0.41401   0.00000  Uiso   1.00
Ni802  Ni    0.41403   0.21780   0.35667   0.00000  Uiso   1.00
Ni803  Ni    0.41403   0.21780   0.64340   0.00000  Uiso   1.00
Ni804  Ni    0.58607   0.21780   0.64340   0.00000  Uiso   1.00
Ni805  Ni    0.58607   0.21780   0.35667   0.00000  Uiso   1.00
Ni806  Ni    0.64342   0.21780   0.41401   0.00000  Uiso   1.00
Ni807  Ni    0.64342   0.21780   0.58606   0.00000  Uiso   1.00
Ni808  Ni    0.24199   0.70167   0.47136   0.00000  Uiso   1.00
Ni809  Ni    0.24199   0.70167   0.52871   0.00000  Uiso   1.00
Ni810  Ni    0.47138   0.70167   0.75810   0.00000  Uiso   1.00
Ni811  Ni    0.47138   0.70167   0.24197   0.00000  Uiso   1.00
Ni812  Ni    0.24199   0.29845   0.47136   0.00000  Uiso   1.00
Ni813  Ni    0.24199   0.29845   0.52871   0.00000  Uiso   1.00
Ni814  Ni    0.52873   0.70167   0.75810   0.00000  Uiso   1.00
Ni815  Ni    0.52873   0.70167   0.24197   0.00000  Uiso   1.00
Ni816  Ni    0.47138   0.29845   0.24197   0.00000  Uiso   1.00
Ni817  Ni    0.47138   0.29845   0.75810   0.00000  Uiso   1.00
Ni818  Ni    0.75812   0.70167   0.52871   0.00000  Uiso   1.00
Ni819  Ni    0.75812   0.70167   0.47136   0.00000  Uiso   1.00
Ni820  Ni    0.52873   0.29845   0.75810   0.00000  Uiso   1.00
Ni821  Ni    0.52873   0.29845   0.24197   0.00000  Uiso   1.00
Ni822  Ni    0.75812   0.29845   0.52871   0.00000  Uiso   1.00
Ni823  Ni    0.75812   0.29845   0.47136   0.00000  Uiso   1.00
Ni824  Ni    0.21332   0.66135   0.50003   0.00000  Uiso   1.00
Ni825  Ni    0.21332   0.33877   0.50003   0.00000  Uiso   1.00
Ni826  Ni    0.27066   0.66135   0.32799   0.00000  Uiso   1.00
Ni827  Ni    0.27066   0.66135   0.67208   0.00000  Uiso   1.00
Ni828  Ni    0.27066   0.33877   0.67208   0.00000  Uiso   1.00
Ni829  Ni    0.27066   0.33877   0.32799   0.00000  Uiso   1.00
Ni830  Ni    0.32801   0.66135   0.72942   0.00000  Uiso   1.00
Ni831  Ni    0.32801   0.66135   0.27065   0.00000  Uiso   1.00
Ni832  Ni    0.32801   0.33877   0.72942   0.00000  Uiso   1.00
Ni833  Ni    0.32801   0.33877   0.27065   0.00000  Uiso   1.00
Ni834  Ni    0.50005   0.66135   0.78677   0.00000  Uiso   1.00
Ni835  Ni    0.50005   0.66135   0.21330   0.00000  Uiso   1.00
Ni836  Ni    0.50005   0.33877   0.78677   0.00000  Uiso   1.00
Ni837  Ni    0.50005   0.33877   0.21330   0.00000  Uiso   1.00
Ni838  Ni    0.67210   0.66135   0.72942   0.00000  Uiso   1.00
Ni839  Ni    0.67210   0.66135   0.27065   0.00000  Uiso   1.00
Ni840  Ni    0.67210   0.33877   0.72942   0.00000  Uiso   1.00
Ni841  Ni    0.67210   0.33877   0.27065   0.00000  Uiso   1.00
Ni842  Ni    0.72944   0.66135   0.67208   0.00000  Uiso   1.00
Ni843  Ni    0.72944   0.66135   0.32799   0.00000  Uiso   1.00
Ni844  Ni    0.72944   0.33877   0.67208   0.00000  Uiso   1.00
Ni845  Ni    0.72944   0.33877   0.32799   0.00000  Uiso   1.00
Ni846  Ni    0.78679   0.66135   0.50003   0.00000  Uiso   1.00
Ni847  Ni    0.78679   0.33877   0.50003   0.00000  Uiso   1.00
Ni848  Ni    0.18464   0.54038   0.41401   0.00000  Uiso   1.00
Ni849  Ni    0.18464   0.54038   0.58606   0.00000  Uiso   1.00
Ni850  Ni    0.18464   0.45973   0.41401   0.00000  Uiso   1.00
Ni851  Ni    0.18464   0.45973   0.58606   0.00000  Uiso   1.00
Ni852  Ni    0.41403   0.54038   0.18462   0.00000  Uiso   1.00
Ni853  Ni    0.41403   0.54038   0.81545   0.00000  Uiso   1.00
Ni854  Ni    0.24199   0.54038   0.29932   0.00000  Uiso   1.00
Ni855  Ni    0.24199   0.54038   0.70075   0.00000  Uiso   1.00
Ni856  Ni    0.41403   0.45973   0.81545   0.00000  Uiso   1.00
Ni857  Ni    0.41403   0.45973   0.18462   0.00000  Uiso   1.00
Ni858  Ni    0.24199   0.45973   0.29932   0.00000  Uiso   1.00
Ni859  Ni    0.24199   0.45973   0.70075   0.00000  Uiso   1.00
Ni860  Ni    0.29934   0.54038   0.24197   0.00000  Uiso   1.00
Ni861  Ni    0.29934   0.54038   0.75810   0.00000  Uiso   1.00
Ni862  Ni    0.29934   0.45973   0.24197   0.00000  Uiso   1.00
Ni863  Ni    0.29934   0.45973   0.75810   0.00000  Uiso   1.00
Ni864  Ni    0.70077   0.54038   0.75810   0.00000  Uiso   1.00
Ni865  Ni    0.70077   0.54038   0.24197   0.00000  Uiso   1.00
Ni866  Ni    0.70077   0.45973   0.75810   0.00000  Uiso   1.00
Ni867  Ni    0.70077   0.45973   0.24197   0.00000  Uiso   1.00
Ni868  Ni    0.75812   0.54038   0.70075   0.00000  Uiso   1.00
Ni869  Ni    0.75812   0.54038   0.29932   0.00000  Uiso   1.00
Ni870  Ni    0.58607   0.54038   0.81545   0.00000  Uiso   1.00
Ni871  Ni    0.58607   0.54038   0.18462   0.00000  Uiso   1.00
Ni872  Ni    0.75812   0.45973   0.70075   0.00000  Uiso   1.00
Ni873  Ni    0.75812   0.45973   0.29932   0.00000  Uiso   1.00
Ni874  Ni    0.58607   0.45973   0.81545   0.00000  Uiso   1.00
Ni875  Ni    0.58607   0.45973   0.18462   0.00000  Uiso   1.00
Ni876  Ni    0.81546   0.54038   0.58606   0.00000  Uiso   1.00
Ni877  Ni    0.81546   0.54038   0.41401   0.00000  Uiso   1.00
Ni878  Ni    0.81546   0.45973   0.58606   0.00000  Uiso   1.00
Ni879  Ni    0.81546   0.45973   0.41401   0.00000  Uiso   1.00
Pt880  Pt    0.50005   0.50006   0.50003   0.00000  Uiso   1.00
Pt881  Pt    0.55740   0.50006   0.55738   0.00000  Uiso   1.00
Pt882  Pt    0.44271   0.50006   0.55738   0.00000  Uiso   1.00
Pt883  Pt    0.44271   0.50006   0.44269   0.00000  Uiso   1.00
Pt884  Pt    0.55740   0.50006   0.44269   0.00000  Uiso   1.00
Pt885  Pt    0.44271   0.41941   0.50003   0.00000  Uiso   1.00
Pt886  Pt    0.44271   0.58070   0.50003   0.00000  Uiso   1.00
Pt887  Pt    0.50005   0.41941   0.44269   0.00000  Uiso   1.00
Pt888  Pt    0.50005   0.41941   0.55738   0.00000  Uiso   1.00
Pt889  Pt    0.50005   0.58070   0.44269   0.00000  Uiso   1.00
Pt890  Pt    0.50005   0.58070   0.55738   0.00000  Uiso   1.00
Pt891  Pt    0.55740   0.41941   0.50003   0.00000  Uiso   1.00
Pt892  Pt    0.55740   0.58070   0.50003   0.00000  Uiso   1.00
Pt893  Pt    0.38536   0.50006   0.50003   0.00000  Uiso   1.00
Pt894  Pt    0.50005   0.50006   0.61473   0.00000  Uiso   1.00
Pt895  Pt    0.50005   0.50006   0.38534   0.00000  Uiso   1.00
Pt896  Pt    0.61475   0.50006   0.50003   0.00000  Uiso   1.00
Pt897  Pt    0.38536   0.41941   0.55738   0.00000  Uiso   1.00
Pt898  Pt    0.38536   0.41941   0.44269   0.00000  Uiso   1.00
Pt899  Pt    0.38536   0.58070   0.44269   0.00000  Uiso   1.00
Pt900  Pt    0.38536   0.58070   0.55738   0.00000  Uiso   1.00
Pt901  Pt    0.44271   0.41941   0.38534   0.00000  Uiso   1.00
Pt902  Pt    0.44271   0.41941   0.61473   0.00000  Uiso   1.00
Pt903  Pt    0.44271   0.58070   0.38534   0.00000  Uiso   1.00
Pt904  Pt    0.44271   0.58070   0.61473   0.00000  Uiso   1.00
Pt905  Pt    0.55740   0.41941   0.61473   0.00000  Uiso   1.00
Pt906  Pt    0.55740   0.41941   0.38534   0.00000  Uiso   1.00
Pt907  Pt    0.55740   0.58070   0.61473   0.00000  Uiso   1.00
Pt908  Pt    0.55740   0.58070   0.38534   0.00000  Uiso   1.00
Pt909  Pt    0.61475   0.41941   0.55738   0.00000  Uiso   1.00
Pt910  Pt    0.61475   0.41941   0.44269   0.00000  Uiso   1.00
Pt911  Pt    0.61475   0.58070   0.55738   0.00000  Uiso   1.00
Pt912  Pt    0.61475   0.58070   0.44269   0.00000  Uiso   1.00
Pt913  Pt    0.50005   0.33877   0.50003   0.00000  Uiso   1.00
Pt914  Pt    0.50005   0.66135   0.50003   0.00000  Uiso   1.00
Pt915  Pt    0.38536   0.50006   0.38534   0.00000  Uiso   1.00
Pt916  Pt    0.38536   0.50006   0.61473   0.00000  Uiso   1.00
Pt917  Pt    0.61475   0.50006   0.61473   0.00000  Uiso   1.00
Pt918  Pt    0.61475   0.50006   0.38534   0.00000  Uiso   1.00
Pt919  Pt    0.44271   0.33877   0.55738   0.00000  Uiso   1.00
Pt920  Pt    0.55740   0.33877   0.55738   0.00000  Uiso   1.00
Pt921  Pt    0.44271   0.33877   0.44269   0.00000  Uiso   1.00
Pt922  Pt    0.55740   0.33877   0.44269   0.00000  Uiso   1.00
Pt923  Pt    0.44271   0.66135   0.55738   0.00000  Uiso   1.00
Pt924  Pt    0.44271   0.66135   0.44269   0.00000  Uiso   1.00
Pt925  Pt    0.55740   0.66135   0.55738   0.00000  Uiso   1.00
Pt926  Pt    0.55740   0.66135   0.44269   0.00000  Uiso   1.00
Pt927  Pt    0.44271   0.50006   0.67208   0.00000  Uiso   1.00
Pt928  Pt    0.32801   0.50006   0.44269   0.00000  Uiso   1.00
Pt929  Pt    0.32801   0.50006   0.55738   0.00000  Uiso   1.00
Pt930  Pt    0.44271   0.50006   0.32799   0.00000  Uiso   1.00
Pt931  Pt    0.55740   0.50006   0.67208   0.00000  Uiso   1.00
Pt932  Pt    0.67210   0.50006   0.55738   0.00000  Uiso   1.00
Pt933  Pt    0.55740   0.50006   0.32799   0.00000  Uiso   1.00
Pt934  Pt    0.67210   0.50006   0.44269   0.00000  Uiso   1.00
Pt935  Pt    0.32801   0.41941   0.50003   0.00000  Uiso   1.00
Pt936  Pt    0.32801   0.58070   0.50003   0.00000  Uiso   1.00
Pt937  Pt    0.50005   0.41941   0.67208   0.00000  Uiso   1.00
Pt938  Pt    0.50005   0.41941   0.32799   0.00000  Uiso   1.00
Pt939  Pt    0.50005   0.58070   0.32799   0.00000  Uiso   1.00
Pt940  Pt    0.50005   0.58070   0.67208   0.00000  Uiso   1.00
Pt941  Pt    0.67210   0.41941   0.50003   0.00000  Uiso   1.00
Pt942  Pt    0.67210   0.58070   0.50003   0.00000  Uiso   1.00
Pt943  Pt    0.50005   0.33877   0.61473   0.00000  Uiso   1.00
Pt944  Pt    0.38536   0.33877   0.50003   0.00000  Uiso   1.00
Pt945  Pt    0.50005   0.33877   0.38534   0.00000  Uiso   1.00
Pt946  Pt    0.61475   0.33877   0.50003   0.00000  Uiso   1.00
Pt947  Pt    0.50005   0.66135   0.38534   0.00000  Uiso   1.00
Pt948  Pt    0.50005   0.66135   0.61473   0.00000  Uiso   1.00
Pt949  Pt    0.38536   0.66135   0.50003   0.00000  Uiso   1.00
Pt950  Pt    0.61475   0.66135   0.50003   0.00000  Uiso   1.00
Pt951  Pt    0.32801   0.41941   0.38534   0.00000  Uiso   1.00
Pt952  Pt    0.32801   0.41941   0.61473   0.00000  Uiso   1.00
Pt953  Pt    0.32801   0.58070   0.38534   0.00000  Uiso   1.00
Pt954  Pt    0.32801   0.58070   0.61473   0.00000  Uiso   1.00
Pt955  Pt    0.38536   0.41941   0.32799   0.00000  Uiso   1.00
Pt956  Pt    0.38536   0.41941   0.67208   0.00000  Uiso   1.00
Pt957  Pt    0.38536   0.58070   0.32799   0.00000  Uiso   1.00
Pt958  Pt    0.38536   0.58070   0.67208   0.00000  Uiso   1.00
Pt959  Pt    0.61475   0.41941   0.67208   0.00000  Uiso   1.00
Pt960  Pt    0.61475   0.41941   0.32799   0.00000  Uiso   1.00
Pt961  Pt    0.61475   0.58070   0.67208   0.00000  Uiso   1.00
Pt962  Pt    0.61475   0.58070   0.32799   0.00000  Uiso   1.00
Pt963  Pt    0.67210   0.41941   0.61473   0.00000  Uiso   1.00
Pt964  Pt    0.67210   0.41941   0.38534   0.00000  Uiso   1.00
Pt965  Pt    0.67210   0.58070   0.61473   0.00000  Uiso   1.00
Pt966  Pt    0.67210   0.58070   0.38534   0.00000  Uiso   1.00
Pt967  Pt    0.38536   0.33877   0.61473   0.00000  Uiso   1.00
Pt968  Pt    0.38536   0.33877   0.38534   0.00000  Uiso   1.00
Pt969  Pt    0.61475   0.33877   0.61473   0.00000  Uiso   1.00
Pt970  Pt    0.61475   0.33877   0.38534   0.00000  Uiso   1.00
Pt971  Pt    0.38536   0.66135   0.61473   0.00000  Uiso   1.00
Pt972  Pt    0.38536   0.66135   0.38534   0.00000  Uiso   1.00
Pt973  Pt    0.61475   0.66135   0.61473   0.00000  Uiso   1.00
Pt974  Pt    0.61475   0.66135   0.38534   0.00000  Uiso   1.00
Pt975  Pt    0.27066   0.50006   0.50003   0.00000  Uiso   1.00
Pt976  Pt    0.50005   0.50006   0.72942   0.00000  Uiso   1.00
Pt977  Pt    0.50005   0.50006   0.27065   0.00000  Uiso   1.00
Pt978  Pt    0.72944   0.50006   0.50003   0.00000  Uiso   1.00
Pt979  Pt    0.32801   0.33877   0.44269   0.00000  Uiso   1.00
Pt980  Pt    0.32801   0.33877   0.55738   0.00000  Uiso   1.00
Pt981  Pt    0.44271   0.33877   0.67208   0.00000  Uiso   1.00
Pt982  Pt    0.44271   0.33877   0.32799   0.00000  Uiso   1.00
Pt983  Pt    0.67210   0.33877   0.55738   0.00000  Uiso   1.00
Pt984  Pt    0.55740   0.33877   0.67208   0.00000  Uiso   1.00
Pt985  Pt    0.44271   0.66135   0.67208   0.00000  Uiso   1.00
Pt986  Pt    0.67210   0.33877   0.44269   0.00000  Uiso   1.00
Pt987  Pt    0.32801   0.66135   0.44269   0.00000  Uiso   1.00
Pt988  Pt    0.32801   0.66135   0.55738   0.00000  Uiso   1.00
Pt989  Pt    0.55740   0.33877   0.32799   0.00000  Uiso   1.00
Pt990  Pt    0.44271   0.66135   0.32799   0.00000  Uiso   1.00
Pt991  Pt    0.67210   0.66135   0.55738   0.00000  Uiso   1.00
Pt992  Pt    0.55740   0.66135   0.67208   0.00000  Uiso   1.00
Pt993  Pt    0.67210   0.66135   0.44269   0.00000  Uiso   1.00
Pt994  Pt    0.55740   0.66135   0.32799   0.00000  Uiso   1.00
Pt995  Pt    0.32801   0.50006   0.67208   0.00000  Uiso   1.00
Pt996  Pt    0.32801   0.50006   0.32799   0.00000  Uiso   1.00
Pt997  Pt    0.67210   0.50006   0.67208   0.00000  Uiso   1.00
Pt998  Pt    0.67210   0.50006   0.32799   0.00000  Uiso   1.00
Pt999  Pt    0.44271   0.25812   0.50003   0.00000  Uiso   1.00
Pt1000 Pt    0.44271   0.74199   0.50003   0.00000  Uiso   1.00
Pt1001 Pt    0.50005   0.25812   0.44269   0.00000  Uiso   1.00
Pt1002 Pt    0.50005   0.25812   0.55738   0.00000  Uiso   1.00
Pt1003 Pt    0.50005   0.74199   0.55738   0.00000  Uiso   1.00
Pt1004 Pt    0.50005   0.74199   0.44269   0.00000  Uiso   1.00
Pt1005 Pt    0.55740   0.25812   0.50003   0.00000  Uiso   1.00
Pt1006 Pt    0.55740   0.74199   0.50003   0.00000  Uiso   1.00
Pt1007 Pt    0.27066   0.41941   0.44269   0.00000  Uiso   1.00
Pt1008 Pt    0.27066   0.41941   0.55738   0.00000  Uiso   1.00
Pt1009 Pt    0.27066   0.58070   0.44269   0.00000  Uiso   1.00
Pt1010 Pt    0.27066   0.58070   0.55738   0.00000  Uiso   1.00
Pt1011 Pt    0.44271   0.41941   0.27065   0.00000  Uiso   1.00
Pt1012 Pt    0.44271   0.41941   0.72942   0.00000  Uiso   1.00
Pt1013 Pt    0.44271   0.58070   0.72942   0.00000  Uiso   1.00
Pt1014 Pt    0.44271   0.58070   0.27065   0.00000  Uiso   1.00
Pt1015 Pt    0.55740   0.41941   0.72942   0.00000  Uiso   1.00
Pt1016 Pt    0.55740   0.41941   0.27065   0.00000  Uiso   1.00
Pt1017 Pt    0.55740   0.58070   0.72942   0.00000  Uiso   1.00
Pt1018 Pt    0.55740   0.58070   0.27065   0.00000  Uiso   1.00
Pt1019 Pt    0.72944   0.41941   0.55738   0.00000  Uiso   1.00
Pt1020 Pt    0.72944   0.41941   0.44269   0.00000  Uiso   1.00
Pt1021 Pt    0.72944   0.58070   0.55738   0.00000  Uiso   1.00
Pt1022 Pt    0.72944   0.58070   0.44269   0.00000  Uiso   1.00
Pt1023 Pt    0.27066   0.50006   0.38534   0.00000  Uiso   1.00
Pt1024 Pt    0.27066   0.50006   0.61473   0.00000  Uiso   1.00
Pt1025 Pt    0.38536   0.50006   0.72942   0.00000  Uiso   1.00
Pt1026 Pt    0.61475   0.50006   0.72942   0.00000  Uiso   1.00
Pt1027 Pt    0.72944   0.50006   0.61473   0.00000  Uiso   1.00
Pt1028 Pt    0.61475   0.50006   0.27065   0.00000  Uiso   1.00
Pt1029 Pt    0.38536   0.50006   0.27065   0.00000  Uiso   1.00
Pt1030 Pt    0.72944   0.50006   0.38534   0.00000  Uiso   1.00
Pt1031 Pt    0.38536   0.25812   0.55738   0.00000  Uiso   1.00
Pt1032 Pt    0.38536   0.25812   0.44269   0.00000  Uiso   1.00
Pt1033 Pt    0.38536   0.74199   0.55738   0.00000  Uiso   1.00
Pt1034 Pt    0.38536   0.74199   0.44269   0.00000  Uiso   1.00
Pt1035 Pt    0.44271   0.25812   0.61473   0.00000  Uiso   1.00
Pt1036 Pt    0.44271   0.25812   0.38534   0.00000  Uiso   1.00
Pt1037 Pt    0.44271   0.74199   0.38534   0.00000  Uiso   1.00
Pt1038 Pt    0.44271   0.74199   0.61473   0.00000  Uiso   1.00
Pt1039 Pt    0.55740   0.25812   0.61473   0.00000  Uiso   1.00
Pt1040 Pt    0.55740   0.25812   0.38534   0.00000  Uiso   1.00
Pt1041 Pt    0.55740   0.74199   0.38534   0.00000  Uiso   1.00
Pt1042 Pt    0.55740   0.74199   0.61473   0.00000  Uiso   1.00
Pt1043 Pt    0.61475   0.25812   0.55738   0.00000  Uiso   1.00
Pt1044 Pt    0.61475   0.25812   0.44269   0.00000  Uiso   1.00
Pt1045 Pt    0.61475   0.74199   0.55738   0.00000  Uiso   1.00
Pt1046 Pt    0.61475   0.74199   0.44269   0.00000  Uiso   1.00
Pt1047 Pt    0.27066   0.33877   0.50003   0.00000  Uiso   1.00
Pt1048 Pt    0.50005   0.33877   0.72942   0.00000  Uiso   1.00
Pt1049 Pt    0.50005   0.33877   0.27065   0.00000  Uiso   1.00
Pt1050 Pt    0.27066   0.66135   0.50003   0.00000  Uiso   1.00
Pt1051 Pt    0.50005   0.66135   0.72942   0.00000  Uiso   1.00
Pt1052 Pt    0.72944   0.33877   0.50003   0.00000  Uiso   1.00
Pt1053 Pt    0.72944   0.66135   0.50003   0.00000  Uiso   1.00
Pt1054 Pt    0.50005   0.66135   0.27065   0.00000  Uiso   1.00
Pt1055 Pt    0.32801   0.33877   0.67208   0.00000  Uiso   1.00
Pt1056 Pt    0.32801   0.33877   0.32799   0.00000  Uiso   1.00
Pt1057 Pt    0.67210   0.33877   0.32799   0.00000  Uiso   1.00
Pt1058 Pt    0.67210   0.33877   0.67208   0.00000  Uiso   1.00
Pt1059 Pt    0.32801   0.66135   0.67208   0.00000  Uiso   1.00
Pt1060 Pt    0.32801   0.66135   0.32799   0.00000  Uiso   1.00
Pt1061 Pt    0.67210   0.66135   0.67208   0.00000  Uiso   1.00
Pt1062 Pt    0.67210   0.66135   0.32799   0.00000  Uiso   1.00
Pt1063 Pt    0.21332   0.50006   0.44269   0.00000  Uiso   1.00
Pt1064 Pt    0.21332   0.50006   0.55738   0.00000  Uiso   1.00
Pt1065 Pt    0.55740   0.50006   0.78677   0.00000  Uiso   1.00
Pt1066 Pt    0.44271   0.50006   0.78677   0.00000  Uiso   1.00
Pt1067 Pt    0.78679   0.50006   0.44269   0.00000  Uiso   1.00
Pt1068 Pt    0.44271   0.50006   0.21330   0.00000  Uiso   1.00
Pt1069 Pt    0.55740   0.50006   0.21330   0.00000  Uiso   1.00
Pt1070 Pt    0.78679   0.50006   0.55738   0.00000  Uiso   1.00
Pt1071 Pt    0.32801   0.25812   0.50003   0.00000  Uiso   1.00
Pt1072 Pt    0.32801   0.74199   0.50003   0.00000  Uiso   1.00
Pt1073 Pt    0.50005   0.25812   0.67208   0.00000  Uiso   1.00
Pt1074 Pt    0.50005   0.25812   0.32799   0.00000  Uiso   1.00
Pt1075 Pt    0.50005   0.74199   0.67208   0.00000  Uiso   1.00
Pt1076 Pt    0.50005   0.74199   0.32799   0.00000  Uiso   1.00
Pt1077 Pt    0.67210   0.25812   0.50003   0.00000  Uiso   1.00
Pt1078 Pt    0.67210   0.74199   0.50003   0.00000  Uiso   1.00
Pt1079 Pt    0.21332   0.41941   0.50003   0.00000  Uiso   1.00
Pt1080 Pt    0.21332   0.58070   0.50003   0.00000  Uiso   1.00
Pt1081 Pt    0.27066   0.41941   0.32799   0.00000  Uiso   1.00
Pt1082 Pt    0.27066   0.41941   0.67208   0.00000  Uiso   1.00
Pt1083 Pt    0.27066   0.58070   0.32799   0.00000  Uiso   1.00
Pt1084 Pt    0.27066   0.58070   0.67208   0.00000  Uiso   1.00
Pt1085 Pt    0.32801   0.41941   0.27065   0.00000  Uiso   1.00
Pt1086 Pt    0.32801   0.41941   0.72942   0.00000  Uiso   1.00
Pt1087 Pt    0.32801   0.58070   0.72942   0.00000  Uiso   1.00
Pt1088 Pt    0.32801   0.58070   0.27065   0.00000  Uiso   1.00
Pt1089 Pt    0.50005   0.41941   0.21330   0.00000  Uiso   1.00
Pt1090 Pt    0.50005   0.41941   0.78677   0.00000  Uiso   1.00
Pt1091 Pt    0.50005   0.58070   0.21330   0.00000  Uiso   1.00
Pt1092 Pt    0.50005   0.58070   0.78677   0.00000  Uiso   1.00
Pt1093 Pt    0.67210   0.41941   0.72942   0.00000  Uiso   1.00
Pt1094 Pt    0.67210   0.41941   0.27065   0.00000  Uiso   1.00
Pt1095 Pt    0.67210   0.58070   0.27065   0.00000  Uiso   1.00
Pt1096 Pt    0.67210   0.58070   0.72942   0.00000  Uiso   1.00
Pt1097 Pt    0.72944   0.41941   0.67208   0.00000  Uiso   1.00
Pt1098 Pt    0.72944   0.41941   0.32799   0.00000  Uiso   1.00
Pt1099 Pt    0.72944   0.58070   0.67208   0.00000  Uiso   1.00
Pt1100 Pt    0.72944   0.58070   0.32799   0.00000  Uiso   1.00
Pt1101 Pt    0.78679   0.41941   0.50003   0.00000  Uiso   1.00
Pt1102 Pt    0.78679   0.58070   0.50003   0.00000  Uiso   1.00
Pt1103 Pt    0.27066   0.33877   0.38534   0.00000  Uiso   1.00
Pt1104 Pt    0.61475   0.33877   0.72942   0.00000  Uiso   1.00
Pt1105 Pt    0.38536   0.33877   0.72942   0.00000  Uiso   1.00
Pt1106 Pt    0.27066   0.66135   0.38534   0.00000  Uiso   1.00
Pt1107 Pt    0.27066   0.33877   0.61473   0.00000  Uiso   1.00
Pt1108 Pt    0.72944   0.33877   0.61473   0.00000  Uiso   1.00
Pt1109 Pt    0.72944   0.66135   0.61473   0.00000  Uiso   1.00
Pt1110 Pt    0.61475   0.33877   0.27065   0.00000  Uiso   1.00
Pt1111 Pt    0.38536   0.33877   0.27065   0.00000  Uiso   1.00
Pt1112 Pt    0.72944   0.66135   0.38534   0.00000  Uiso   1.00
Pt1113 Pt    0.72944   0.33877   0.38534   0.00000  Uiso   1.00
Pt1114 Pt    0.61475   0.66135   0.72942   0.00000  Uiso   1.00
Pt1115 Pt    0.27066   0.66135   0.61473   0.00000  Uiso   1.00
Pt1116 Pt    0.38536   0.66135   0.72942   0.00000  Uiso   1.00
Pt1117 Pt    0.61475   0.66135   0.27065   0.00000  Uiso   1.00
Pt1118 Pt    0.38536   0.66135   0.27065   0.00000  Uiso   1.00
Pt1119 Pt    0.32801   0.25812   0.38534   0.00000  Uiso   1.00
Pt1120 Pt    0.32801   0.25812   0.61473   0.00000  Uiso   1.00
Pt1121 Pt    0.32801   0.74199   0.61473   0.00000  Uiso   1.00
Pt1122 Pt    0.32801   0.74199   0.38534   0.00000  Uiso   1.00
Pt1123 Pt    0.38536   0.25812   0.32799   0.00000  Uiso   1.00
Pt1124 Pt    0.38536   0.25812   0.67208   0.00000  Uiso   1.00
Pt1125 Pt    0.38536   0.74199   0.32799   0.00000  Uiso   1.00
Pt1126 Pt    0.38536   0.74199   0.67208   0.00000  Uiso   1.00
Pt1127 Pt    0.61475   0.25812   0.67208   0.00000  Uiso   1.00
Pt1128 Pt    0.61475   0.25812   0.32799   0.00000  Uiso   1.00
Pt1129 Pt    0.61475   0.74199   0.32799   0.00000  Uiso   1.00
Pt1130 Pt    0.61475   0.74199   0.67208   0.00000  Uiso   1.00
Pt1131 Pt    0.67210   0.25812   0.61473   0.00000  Uiso   1.00
Pt1132 Pt    0.67210   0.25812   0.38534   0.00000  Uiso   1.00
Pt1133 Pt    0.67210   0.74199   0.38534   0.00000  Uiso   1.00
Pt1134 Pt    0.67210   0.74199   0.61473   0.00000  Uiso   1.00
Pt1135 Pt    0.21332   0.41941   0.38534   0.00000  Uiso   1.00
Pt1136 Pt    0.21332   0.41941   0.61473   0.00000  Uiso   1.00
Pt1137 Pt    0.21332   0.58070   0.38534   0.00000  Uiso   1.00
Pt1138 Pt    0.21332   0.58070   0.61473   0.00000  Uiso   1.00
Pt1139 Pt    0.38536   0.41941   0.78677   0.00000  Uiso   1.00
Pt1140 Pt    0.38536   0.41941   0.21330   0.00000  Uiso   1.00
Pt1141 Pt    0.38536   0.58070   0.21330   0.00000  Uiso   1.00
Pt1142 Pt    0.38536   0.58070   0.78677   0.00000  Uiso   1.00
Pt1143 Pt    0.61475   0.41941   0.78677   0.00000  Uiso   1.00
Pt1144 Pt    0.61475   0.41941   0.21330   0.00000  Uiso   1.00
Pt1145 Pt    0.61475   0.58070   0.78677   0.00000  Uiso   1.00
Pt1146 Pt    0.61475   0.58070   0.21330   0.00000  Uiso   1.00
Pt1147 Pt    0.78679   0.41941   0.61473   0.00000  Uiso   1.00
Pt1148 Pt    0.78679   0.41941   0.38534   0.00000  Uiso   1.00
Pt1149 Pt    0.78679   0.58070   0.61473   0.00000  Uiso   1.00
Pt1150 Pt    0.78679   0.58070   0.38534   0.00000  Uiso   1.00
Pt1151 Pt    0.50005   0.82263   0.50003   0.00000  Uiso   1.00
Pt1152 Pt    0.50005   0.17748   0.50003   0.00000  Uiso   1.00
Pt1153 Pt    0.27066   0.50006   0.27065   0.00000  Uiso   1.00
Pt1154 Pt    0.27066   0.50006   0.72942   0.00000  Uiso   1.00
Pt1155 Pt    0.72944   0.50006   0.72942   0.00000  Uiso   1.00
Pt1156 Pt    0.72944   0.50006   0.27065   0.00000  Uiso   1.00
Pt1157 Pt    0.44271   0.82263   0.55738   0.00000  Uiso   1.00
Pt1158 Pt    0.55740   0.82263   0.55738   0.00000  Uiso   1.00
Pt1159 Pt    0.44271   0.82263   0.44269   0.00000  Uiso   1.00
Pt1160 Pt    0.55740   0.82263   0.44269   0.00000  Uiso   1.00
Pt1161 Pt    0.44271   0.17748   0.44269   0.00000  Uiso   1.00
Pt1162 Pt    0.44271   0.17748   0.55738   0.00000  Uiso   1.00
Pt1163 Pt    0.55740   0.17748   0.55738   0.00000  Uiso   1.00
Pt1164 Pt    0.55740   0.17748   0.44269   0.00000  Uiso   1.00
