# generated using pymatgen
data_Co433Pt432
_symmetry_space_group_name_H-M   'P 1'
_cell_length_a   60.00000000
_cell_length_b   60.00000000
_cell_length_c   60.00000000
_cell_angle_alpha   90.00000000
_cell_angle_beta   90.00000000
_cell_angle_gamma   90.00000000
_symmetry_Int_Tables_number   1
_chemical_formula_structural   Co433Pt432
_chemical_formula_sum   'Co1299 Pt1296'
_cell_volume   216000.00000000
_cell_formula_units_Z   3
loop_
 _symmetry_equiv_pos_site_id
 _symmetry_equiv_pos_as_xyz
  1  'x, y, z'
loop_
 _atom_site_type_symbol
 _atom_site_label
 _atom_site_symmetry_multiplicity
 _atom_site_fract_x
 _atom_site_fract_y
 _atom_site_fract_z
 _atom_site_occupancy
  Co  Co0  1  0.50000000  0.49999999  0.50000000  1
  Co  Co1  1  0.53159317  0.49999999  0.53159317  1
  Co  Co2  1  0.53159317  0.49999999  0.46840682  1
  Co  Co3  1  0.46840682  0.49999999  0.53159317  1
  Co  Co4  1  0.46840682  0.49999999  0.46840682  1
  Co  Co5  1  0.50000000  0.56052048  0.50000000  1
  Co  Co6  1  0.50000000  0.43947951  0.50000000  1
  Co  Co7  1  0.56318635  0.49999999  0.50000000  1
  Co  Co8  1  0.50000000  0.49999999  0.43681365  1
  Co  Co9  1  0.43681365  0.49999999  0.50000000  1
  Co  Co10  1  0.50000000  0.49999999  0.56318635  1
  Co  Co11  1  0.53159317  0.56052048  0.53159317  1
  Co  Co12  1  0.53159317  0.43947951  0.53159317  1
  Co  Co13  1  0.53159317  0.56052048  0.46840682  1
  Co  Co14  1  0.53159317  0.43947951  0.46840682  1
  Co  Co15  1  0.46840682  0.56052048  0.53159317  1
  Co  Co16  1  0.46840682  0.43947951  0.53159317  1
  Co  Co17  1  0.46840682  0.56052048  0.46840682  1
  Co  Co18  1  0.46840682  0.43947951  0.46840682  1
  Co  Co19  1  0.56318635  0.56052048  0.50000000  1
  Co  Co20  1  0.50000000  0.43947951  0.56318635  1
  Co  Co21  1  0.56318635  0.43947951  0.50000000  1
  Co  Co22  1  0.50000000  0.56052048  0.56318635  1
  Co  Co23  1  0.50000000  0.56052048  0.43681365  1
  Co  Co24  1  0.50000000  0.43947951  0.43681365  1
  Co  Co25  1  0.43681365  0.56052048  0.50000000  1
  Co  Co26  1  0.43681365  0.43947951  0.50000000  1
  Co  Co27  1  0.43681365  0.49999999  0.56318635  1
  Co  Co28  1  0.56318635  0.49999999  0.43681365  1
  Co  Co29  1  0.56318635  0.49999999  0.56318635  1
  Co  Co30  1  0.43681365  0.49999999  0.43681365  1
  Co  Co31  1  0.59477952  0.49999999  0.53159317  1
  Co  Co32  1  0.53159317  0.49999999  0.59477952  1
  Co  Co33  1  0.59477952  0.49999999  0.46840682  1
  Co  Co34  1  0.46840682  0.49999999  0.59477952  1
  Co  Co35  1  0.53159317  0.49999999  0.40522047  1
  Co  Co36  1  0.40522047  0.49999999  0.53159317  1
  Co  Co37  1  0.40522047  0.49999999  0.46840682  1
  Co  Co38  1  0.46840682  0.49999999  0.40522047  1
  Co  Co39  1  0.56318635  0.56052048  0.43681365  1
  Co  Co40  1  0.56318635  0.56052048  0.56318635  1
  Co  Co41  1  0.56318635  0.43947951  0.56318635  1
  Co  Co42  1  0.56318635  0.43947951  0.43681365  1
  Co  Co43  1  0.43681365  0.43947951  0.56318635  1
  Co  Co44  1  0.43681365  0.56052048  0.43681365  1
  Co  Co45  1  0.43681365  0.56052048  0.56318635  1
  Co  Co46  1  0.43681365  0.43947951  0.43681365  1
  Co  Co47  1  0.59477952  0.56052048  0.53159317  1
  Co  Co48  1  0.53159317  0.56052048  0.59477952  1
  Co  Co49  1  0.59477952  0.43947951  0.53159317  1
  Co  Co50  1  0.53159317  0.43947951  0.59477952  1
  Co  Co51  1  0.59477952  0.56052048  0.46840682  1
  Co  Co52  1  0.59477952  0.43947951  0.46840682  1
  Co  Co53  1  0.46840682  0.43947951  0.59477952  1
  Co  Co54  1  0.46840682  0.56052048  0.59477952  1
  Co  Co55  1  0.53159317  0.56052048  0.40522047  1
  Co  Co56  1  0.53159317  0.43947951  0.40522047  1
  Co  Co57  1  0.40522047  0.43947951  0.53159317  1
  Co  Co58  1  0.40522047  0.56052048  0.53159317  1
  Co  Co59  1  0.46840682  0.43947951  0.40522047  1
  Co  Co60  1  0.46840682  0.56052048  0.40522047  1
  Co  Co61  1  0.40522047  0.43947951  0.46840682  1
  Co  Co62  1  0.40522047  0.56052048  0.46840682  1
  Co  Co63  1  0.50000000  0.62104096  0.50000000  1
  Co  Co64  1  0.50000000  0.37895903  0.50000000  1
  Co  Co65  1  0.62637270  0.49999999  0.50000000  1
  Co  Co66  1  0.50000000  0.49999999  0.62637270  1
  Co  Co67  1  0.37362730  0.49999999  0.50000000  1
  Co  Co68  1  0.50000000  0.49999999  0.37362730  1
  Co  Co69  1  0.53159317  0.62104096  0.53159317  1
  Co  Co70  1  0.53159317  0.37895903  0.53159317  1
  Co  Co71  1  0.53159317  0.62104096  0.46840682  1
  Co  Co72  1  0.46840682  0.62104096  0.53159317  1
  Co  Co73  1  0.53159317  0.37895903  0.46840682  1
  Co  Co74  1  0.46840682  0.37895903  0.53159317  1
  Co  Co75  1  0.46840682  0.62104096  0.46840682  1
  Co  Co76  1  0.46840682  0.37895903  0.46840682  1
  Co  Co77  1  0.59477952  0.49999999  0.59477952  1
  Co  Co78  1  0.59477952  0.49999999  0.40522047  1
  Co  Co79  1  0.40522047  0.49999999  0.59477952  1
  Co  Co80  1  0.40522047  0.49999999  0.40522047  1
  Co  Co81  1  0.56318635  0.62104096  0.50000000  1
  Co  Co82  1  0.50000000  0.62104096  0.56318635  1
  Co  Co83  1  0.50000000  0.62104096  0.43681365  1
  Co  Co84  1  0.43681365  0.62104096  0.50000000  1
  Co  Co85  1  0.50000000  0.37895903  0.56318635  1
  Co  Co86  1  0.56318635  0.37895903  0.50000000  1
  Co  Co87  1  0.50000000  0.37895903  0.43681365  1
  Co  Co88  1  0.43681365  0.37895903  0.50000000  1
  Co  Co89  1  0.62637270  0.56052048  0.50000000  1
  Co  Co90  1  0.50000000  0.56052048  0.62637270  1
  Co  Co91  1  0.50000000  0.43947951  0.62637270  1
  Co  Co92  1  0.62637270  0.43947951  0.50000000  1
  Co  Co93  1  0.50000000  0.56052048  0.37362730  1
  Co  Co94  1  0.50000000  0.43947951  0.37362730  1
  Co  Co95  1  0.37362730  0.56052048  0.50000000  1
  Co  Co96  1  0.37362730  0.43947951  0.50000000  1
  Co  Co97  1  0.56318635  0.49999999  0.62637270  1
  Co  Co98  1  0.62637270  0.49999999  0.56318635  1
  Co  Co99  1  0.62637270  0.49999999  0.43681365  1
  Co  Co100  1  0.43681365  0.49999999  0.62637270  1
  Co  Co101  1  0.56318635  0.49999999  0.37362730  1
  Co  Co102  1  0.37362730  0.49999999  0.56318635  1
  Co  Co103  1  0.37362730  0.49999999  0.43681365  1
  Co  Co104  1  0.43681365  0.49999999  0.37362730  1
  Co  Co105  1  0.59477952  0.56052048  0.59477952  1
  Co  Co106  1  0.59477952  0.43947951  0.59477952  1
  Co  Co107  1  0.59477952  0.56052048  0.40522047  1
  Co  Co108  1  0.59477952  0.43947951  0.40522047  1
  Co  Co109  1  0.40522047  0.43947951  0.59477952  1
  Co  Co110  1  0.40522047  0.56052048  0.59477952  1
  Co  Co111  1  0.40522047  0.43947951  0.40522047  1
  Co  Co112  1  0.40522047  0.56052048  0.40522047  1
  Co  Co113  1  0.56318635  0.62104096  0.56318635  1
  Co  Co114  1  0.56318635  0.62104096  0.43681365  1
  Co  Co115  1  0.43681365  0.62104096  0.43681365  1
  Co  Co116  1  0.43681365  0.62104096  0.56318635  1
  Co  Co117  1  0.56318635  0.37895903  0.43681365  1
  Co  Co118  1  0.56318635  0.37895903  0.56318635  1
  Co  Co119  1  0.43681365  0.37895903  0.43681365  1
  Co  Co120  1  0.43681365  0.37895903  0.56318635  1
  Co  Co121  1  0.62637270  0.56052048  0.43681365  1
  Co  Co122  1  0.62637270  0.56052048  0.56318635  1
  Co  Co123  1  0.56318635  0.56052048  0.62637270  1
  Co  Co124  1  0.56318635  0.43947951  0.62637270  1
  Co  Co125  1  0.56318635  0.56052048  0.37362730  1
  Co  Co126  1  0.56318635  0.43947951  0.37362730  1
  Co  Co127  1  0.62637270  0.43947951  0.43681365  1
  Co  Co128  1  0.43681365  0.43947951  0.62637270  1
  Co  Co129  1  0.62637270  0.43947951  0.56318635  1
  Co  Co130  1  0.43681365  0.56052048  0.62637270  1
  Co  Co131  1  0.37362730  0.56052048  0.56318635  1
  Co  Co132  1  0.43681365  0.56052048  0.37362730  1
  Co  Co133  1  0.37362730  0.56052048  0.43681365  1
  Co  Co134  1  0.37362730  0.43947951  0.56318635  1
  Co  Co135  1  0.43681365  0.43947951  0.37362730  1
  Co  Co136  1  0.37362730  0.43947951  0.43681365  1
  Co  Co137  1  0.59477952  0.62104096  0.53159317  1
  Co  Co138  1  0.53159317  0.62104096  0.59477952  1
  Co  Co139  1  0.59477952  0.37895903  0.53159317  1
  Co  Co140  1  0.53159317  0.37895903  0.59477952  1
  Co  Co141  1  0.59477952  0.62104096  0.46840682  1
  Co  Co142  1  0.46840682  0.62104096  0.59477952  1
  Co  Co143  1  0.59477952  0.37895903  0.46840682  1
  Co  Co144  1  0.46840682  0.37895903  0.59477952  1
  Co  Co145  1  0.53159317  0.62104096  0.40522047  1
  Co  Co146  1  0.40522047  0.62104096  0.53159317  1
  Co  Co147  1  0.53159317  0.37895903  0.40522047  1
  Co  Co148  1  0.40522047  0.37895903  0.53159317  1
  Co  Co149  1  0.46840682  0.62104096  0.40522047  1
  Co  Co150  1  0.40522047  0.62104096  0.46840682  1
  Co  Co151  1  0.46840682  0.37895903  0.40522047  1
  Co  Co152  1  0.40522047  0.37895903  0.46840682  1
  Co  Co153  1  0.53159317  0.49999999  0.65796587  1
  Co  Co154  1  0.65796587  0.49999999  0.53159317  1
  Co  Co155  1  0.65796587  0.49999999  0.46840682  1
  Co  Co156  1  0.46840682  0.49999999  0.65796587  1
  Co  Co157  1  0.53159317  0.49999999  0.34203412  1
  Co  Co158  1  0.34203412  0.49999999  0.53159317  1
  Co  Co159  1  0.46840682  0.49999999  0.34203412  1
  Co  Co160  1  0.34203412  0.49999999  0.46840682  1
  Co  Co161  1  0.53159317  0.56052048  0.65796587  1
  Co  Co162  1  0.65796587  0.56052048  0.53159317  1
  Co  Co163  1  0.53159317  0.43947951  0.65796587  1
  Co  Co164  1  0.65796587  0.43947951  0.53159317  1
  Co  Co165  1  0.65796587  0.56052048  0.46840682  1
  Co  Co166  1  0.46840682  0.56052048  0.65796587  1
  Co  Co167  1  0.46840682  0.43947951  0.65796587  1
  Co  Co168  1  0.65796587  0.43947951  0.46840682  1
  Co  Co169  1  0.53159317  0.56052048  0.34203412  1
  Co  Co170  1  0.53159317  0.43947951  0.34203412  1
  Co  Co171  1  0.34203412  0.56052048  0.53159317  1
  Co  Co172  1  0.34203412  0.43947951  0.53159317  1
  Co  Co173  1  0.46840682  0.56052048  0.34203412  1
  Co  Co174  1  0.46840682  0.43947951  0.34203412  1
  Co  Co175  1  0.34203412  0.56052048  0.46840682  1
  Co  Co176  1  0.34203412  0.43947951  0.46840682  1
  Co  Co177  1  0.62637270  0.62104096  0.50000000  1
  Co  Co178  1  0.50000000  0.62104096  0.62637270  1
  Co  Co179  1  0.50000000  0.62104096  0.37362730  1
  Co  Co180  1  0.37362730  0.62104096  0.50000000  1
  Co  Co181  1  0.62637270  0.37895903  0.50000000  1
  Co  Co182  1  0.50000000  0.37895903  0.62637270  1
  Co  Co183  1  0.50000000  0.37895903  0.37362730  1
  Co  Co184  1  0.37362730  0.37895903  0.50000000  1
  Co  Co185  1  0.62637270  0.49999999  0.62637270  1
  Co  Co186  1  0.37362730  0.49999999  0.62637270  1
  Co  Co187  1  0.62637270  0.49999999  0.37362730  1
  Co  Co188  1  0.37362730  0.49999999  0.37362730  1
  Co  Co189  1  0.59477952  0.62104096  0.59477952  1
  Co  Co190  1  0.59477952  0.37895903  0.59477952  1
  Co  Co191  1  0.59477952  0.62104096  0.40522047  1
  Co  Co192  1  0.59477952  0.37895903  0.40522047  1
  Co  Co193  1  0.40522047  0.62104096  0.59477952  1
  Co  Co194  1  0.40522047  0.37895903  0.59477952  1
  Co  Co195  1  0.40522047  0.62104096  0.40522047  1
  Co  Co196  1  0.40522047  0.37895903  0.40522047  1
  Co  Co197  1  0.50000000  0.68156144  0.50000000  1
  Co  Co198  1  0.50000000  0.31843854  0.50000000  1
  Co  Co199  1  0.59477952  0.49999999  0.65796587  1
  Co  Co200  1  0.65796587  0.49999999  0.59477952  1
  Co  Co201  1  0.40522047  0.49999999  0.65796587  1
  Co  Co202  1  0.65796587  0.49999999  0.40522047  1
  Co  Co203  1  0.59477952  0.49999999  0.34203412  1
  Co  Co204  1  0.34203412  0.49999999  0.59477952  1
  Co  Co205  1  0.40522047  0.49999999  0.34203412  1
  Co  Co206  1  0.34203412  0.49999999  0.40522047  1
  Co  Co207  1  0.62637270  0.62104096  0.43681365  1
  Co  Co208  1  0.62637270  0.62104096  0.56318635  1
  Co  Co209  1  0.56318635  0.62104096  0.62637270  1
  Co  Co210  1  0.56318635  0.62104096  0.37362730  1
  Co  Co211  1  0.43681365  0.62104096  0.62637270  1
  Co  Co212  1  0.56318635  0.37895903  0.62637270  1
  Co  Co213  1  0.43681365  0.62104096  0.37362730  1
  Co  Co214  1  0.37362730  0.62104096  0.56318635  1
  Co  Co215  1  0.37362730  0.62104096  0.43681365  1
  Co  Co216  1  0.62637270  0.37895903  0.43681365  1
  Co  Co217  1  0.62637270  0.37895903  0.56318635  1
  Co  Co218  1  0.43681365  0.37895903  0.62637270  1
  Co  Co219  1  0.56318635  0.37895903  0.37362730  1
  Co  Co220  1  0.37362730  0.37895903  0.56318635  1
  Co  Co221  1  0.43681365  0.37895903  0.37362730  1
  Co  Co222  1  0.37362730  0.37895903  0.43681365  1
  Co  Co223  1  0.53159317  0.68156144  0.53159317  1
  Co  Co224  1  0.53159317  0.31843854  0.53159317  1
  Co  Co225  1  0.53159317  0.68156144  0.46840682  1
  Co  Co226  1  0.46840682  0.68156144  0.53159317  1
  Co  Co227  1  0.53159317  0.31843854  0.46840682  1
  Co  Co228  1  0.46840682  0.31843854  0.53159317  1
  Co  Co229  1  0.46840682  0.68156144  0.46840682  1
  Co  Co230  1  0.46840682  0.31843854  0.46840682  1
  Co  Co231  1  0.62637270  0.56052048  0.62637270  1
  Co  Co232  1  0.62637270  0.56052048  0.37362730  1
  Co  Co233  1  0.62637270  0.43947951  0.62637270  1
  Co  Co234  1  0.62637270  0.43947951  0.37362730  1
  Co  Co235  1  0.37362730  0.56052048  0.62637270  1
  Co  Co236  1  0.37362730  0.56052048  0.37362730  1
  Co  Co237  1  0.37362730  0.43947951  0.62637270  1
  Co  Co238  1  0.37362730  0.43947951  0.37362730  1
  Co  Co239  1  0.50000000  0.49999999  0.68955905  1
  Co  Co240  1  0.68955905  0.49999999  0.50000000  1
  Co  Co241  1  0.50000000  0.49999999  0.31044095  1
  Co  Co242  1  0.31044095  0.49999999  0.50000000  1
  Co  Co243  1  0.56318635  0.68156144  0.50000000  1
  Co  Co244  1  0.50000000  0.68156144  0.43681365  1
  Co  Co245  1  0.50000000  0.68156144  0.56318635  1
  Co  Co246  1  0.43681365  0.68156144  0.50000000  1
  Co  Co247  1  0.56318635  0.31843854  0.50000000  1
  Co  Co248  1  0.50000000  0.31843854  0.56318635  1
  Co  Co249  1  0.50000000  0.31843854  0.43681365  1
  Co  Co250  1  0.43681365  0.31843854  0.50000000  1
  Co  Co251  1  0.59477952  0.56052048  0.65796587  1
  Co  Co252  1  0.59477952  0.43947951  0.65796587  1
  Co  Co253  1  0.65796587  0.56052048  0.59477952  1
  Co  Co254  1  0.65796587  0.43947951  0.59477952  1
  Co  Co255  1  0.65796587  0.56052048  0.40522047  1
  Co  Co256  1  0.65796587  0.43947951  0.40522047  1
  Co  Co257  1  0.40522047  0.43947951  0.65796587  1
  Co  Co258  1  0.40522047  0.56052048  0.65796587  1
  Co  Co259  1  0.59477952  0.56052048  0.34203412  1
  Co  Co260  1  0.59477952  0.43947951  0.34203412  1
  Co  Co261  1  0.34203412  0.56052048  0.59477952  1
  Co  Co262  1  0.34203412  0.43947951  0.59477952  1
  Co  Co263  1  0.40522047  0.56052048  0.34203412  1
  Co  Co264  1  0.34203412  0.56052048  0.40522047  1
  Co  Co265  1  0.40522047  0.43947951  0.34203412  1
  Co  Co266  1  0.34203412  0.43947951  0.40522047  1
  Co  Co267  1  0.68955905  0.56052048  0.50000000  1
  Co  Co268  1  0.50000000  0.56052048  0.68955905  1
  Co  Co269  1  0.50000000  0.43947951  0.68955905  1
  Co  Co270  1  0.68955905  0.43947951  0.50000000  1
  Co  Co271  1  0.50000000  0.56052048  0.31044095  1
  Co  Co272  1  0.31044095  0.56052048  0.50000000  1
  Co  Co273  1  0.50000000  0.43947951  0.31044095  1
  Co  Co274  1  0.31044095  0.43947951  0.50000000  1
  Co  Co275  1  0.68955905  0.49999999  0.56318635  1
  Co  Co276  1  0.43681365  0.49999999  0.68955905  1
  Co  Co277  1  0.56318635  0.49999999  0.68955905  1
  Co  Co278  1  0.68955905  0.49999999  0.43681365  1
  Co  Co279  1  0.56318635  0.49999999  0.31044095  1
  Co  Co280  1  0.31044095  0.49999999  0.56318635  1
  Co  Co281  1  0.43681365  0.49999999  0.31044095  1
  Co  Co282  1  0.31044095  0.49999999  0.43681365  1
  Co  Co283  1  0.65796587  0.62104096  0.53159317  1
  Co  Co284  1  0.53159317  0.62104096  0.65796587  1
  Co  Co285  1  0.65796587  0.37895903  0.53159317  1
  Co  Co286  1  0.53159317  0.37895903  0.65796587  1
  Co  Co287  1  0.46840682  0.62104096  0.65796587  1
  Co  Co288  1  0.65796587  0.62104096  0.46840682  1
  Co  Co289  1  0.65796587  0.37895903  0.46840682  1
  Co  Co290  1  0.46840682  0.37895903  0.65796587  1
  Co  Co291  1  0.53159317  0.62104096  0.34203412  1
  Co  Co292  1  0.34203412  0.62104096  0.53159317  1
  Co  Co293  1  0.53159317  0.37895903  0.34203412  1
  Co  Co294  1  0.34203412  0.37895903  0.53159317  1
  Co  Co295  1  0.46840682  0.62104096  0.34203412  1
  Co  Co296  1  0.34203412  0.62104096  0.46840682  1
  Co  Co297  1  0.46840682  0.37895903  0.34203412  1
  Co  Co298  1  0.34203412  0.37895903  0.46840682  1
  Co  Co299  1  0.56318635  0.68156144  0.43681365  1
  Co  Co300  1  0.56318635  0.68156144  0.56318635  1
  Co  Co301  1  0.43681365  0.68156144  0.56318635  1
  Co  Co302  1  0.43681365  0.68156144  0.43681365  1
  Co  Co303  1  0.56318635  0.31843854  0.43681365  1
  Co  Co304  1  0.56318635  0.31843854  0.56318635  1
  Co  Co305  1  0.43681365  0.31843854  0.56318635  1
  Co  Co306  1  0.43681365  0.31843854  0.43681365  1
  Co  Co307  1  0.59477952  0.68156144  0.53159317  1
  Co  Co308  1  0.53159317  0.68156144  0.59477952  1
  Co  Co309  1  0.59477952  0.31843854  0.53159317  1
  Co  Co310  1  0.53159317  0.31843854  0.59477952  1
  Co  Co311  1  0.59477952  0.68156144  0.46840682  1
  Co  Co312  1  0.46840682  0.68156144  0.59477952  1
  Co  Co313  1  0.59477952  0.31843854  0.46840682  1
  Co  Co314  1  0.46840682  0.31843854  0.59477952  1
  Co  Co315  1  0.53159317  0.68156144  0.40522047  1
  Co  Co316  1  0.40522047  0.68156144  0.53159317  1
  Co  Co317  1  0.53159317  0.31843854  0.40522047  1
  Co  Co318  1  0.40522047  0.31843854  0.53159317  1
  Co  Co319  1  0.46840682  0.68156144  0.40522047  1
  Co  Co320  1  0.40522047  0.68156144  0.46840682  1
  Co  Co321  1  0.46840682  0.31843854  0.40522047  1
  Co  Co322  1  0.40522047  0.31843854  0.46840682  1
  Co  Co323  1  0.68955905  0.56052048  0.56318635  1
  Co  Co324  1  0.56318635  0.56052048  0.68955905  1
  Co  Co325  1  0.68955905  0.56052048  0.43681365  1
  Co  Co326  1  0.56318635  0.43947951  0.68955905  1
  Co  Co327  1  0.43681365  0.56052048  0.68955905  1
  Co  Co328  1  0.68955905  0.43947951  0.56318635  1
  Co  Co329  1  0.68955905  0.43947951  0.43681365  1
  Co  Co330  1  0.43681365  0.43947951  0.68955905  1
  Co  Co331  1  0.56318635  0.56052048  0.31044095  1
  Co  Co332  1  0.43681365  0.43947951  0.31044095  1
  Co  Co333  1  0.56318635  0.43947951  0.31044095  1
  Co  Co334  1  0.43681365  0.56052048  0.31044095  1
  Co  Co335  1  0.31044095  0.56052048  0.56318635  1
  Co  Co336  1  0.31044095  0.56052048  0.43681365  1
  Co  Co337  1  0.31044095  0.43947951  0.56318635  1
  Co  Co338  1  0.31044095  0.43947951  0.43681365  1
  Co  Co339  1  0.62637270  0.62104096  0.62637270  1
  Co  Co340  1  0.62637270  0.62104096  0.37362730  1
  Co  Co341  1  0.37362730  0.62104096  0.62637270  1
  Co  Co342  1  0.62637270  0.37895903  0.62637270  1
  Co  Co343  1  0.37362730  0.62104096  0.37362730  1
  Co  Co344  1  0.62637270  0.37895903  0.37362730  1
  Co  Co345  1  0.37362730  0.37895903  0.62637270  1
  Co  Co346  1  0.37362730  0.37895903  0.37362730  1
  Co  Co347  1  0.59477952  0.62104096  0.65796587  1
  Co  Co348  1  0.65796587  0.62104096  0.59477952  1
  Co  Co349  1  0.59477952  0.37895903  0.65796587  1
  Co  Co350  1  0.65796587  0.37895903  0.59477952  1
  Co  Co351  1  0.65796587  0.62104096  0.40522047  1
  Co  Co352  1  0.40522047  0.62104096  0.65796587  1
  Co  Co353  1  0.65796587  0.37895903  0.40522047  1
  Co  Co354  1  0.40522047  0.37895903  0.65796587  1
  Co  Co355  1  0.59477952  0.62104096  0.34203412  1
  Co  Co356  1  0.34203412  0.62104096  0.59477952  1
  Co  Co357  1  0.59477952  0.37895903  0.34203412  1
  Co  Co358  1  0.34203412  0.37895903  0.59477952  1
  Co  Co359  1  0.40522047  0.62104096  0.34203412  1
  Co  Co360  1  0.34203412  0.62104096  0.40522047  1
  Co  Co361  1  0.40522047  0.37895903  0.34203412  1
  Co  Co362  1  0.34203412  0.37895903  0.40522047  1
  Co  Co363  1  0.62637270  0.68156144  0.50000000  1
  Co  Co364  1  0.50000000  0.68156144  0.62637270  1
  Co  Co365  1  0.50000000  0.68156144  0.37362730  1
  Co  Co366  1  0.37362730  0.68156144  0.50000000  1
  Co  Co367  1  0.62637270  0.31843854  0.50000000  1
  Co  Co368  1  0.50000000  0.31843854  0.62637270  1
  Co  Co369  1  0.50000000  0.31843854  0.37362730  1
  Co  Co370  1  0.37362730  0.31843854  0.50000000  1
  Co  Co371  1  0.65796587  0.49999999  0.65796587  1
  Co  Co372  1  0.72115222  0.49999999  0.53159317  1
  Co  Co373  1  0.53159317  0.49999999  0.72115222  1
  Co  Co374  1  0.72115222  0.49999999  0.46840682  1
  Co  Co375  1  0.46840682  0.49999999  0.72115222  1
  Co  Co376  1  0.65796587  0.49999999  0.34203412  1
  Co  Co377  1  0.34203412  0.49999999  0.65796587  1
  Co  Co378  1  0.53159317  0.49999999  0.27884777  1
  Co  Co379  1  0.27884777  0.49999999  0.53159317  1
  Co  Co380  1  0.46840682  0.49999999  0.27884777  1
  Co  Co381  1  0.27884777  0.49999999  0.46840682  1
  Co  Co382  1  0.34203412  0.49999999  0.34203412  1
  Co  Co383  1  0.50000000  0.62104096  0.68955905  1
  Co  Co384  1  0.68955905  0.62104096  0.50000000  1
  Co  Co385  1  0.68955905  0.37895903  0.50000000  1
  Co  Co386  1  0.50000000  0.37895903  0.68955905  1
  Co  Co387  1  0.50000000  0.62104096  0.31044095  1
  Co  Co388  1  0.31044095  0.62104096  0.50000000  1
  Co  Co389  1  0.50000000  0.37895903  0.31044095  1
  Co  Co390  1  0.31044095  0.37895903  0.50000000  1
  Co  Co391  1  0.59477952  0.68156144  0.59477952  1
  Co  Co392  1  0.59477952  0.31843854  0.59477952  1
  Co  Co393  1  0.59477952  0.68156144  0.40522047  1
  Co  Co394  1  0.40522047  0.68156144  0.59477952  1
  Co  Co395  1  0.59477952  0.31843854  0.40522047  1
  Co  Co396  1  0.40522047  0.31843854  0.59477952  1
  Co  Co397  1  0.40522047  0.68156144  0.40522047  1
  Co  Co398  1  0.40522047  0.31843854  0.40522047  1
  Co  Co399  1  0.68955905  0.49999999  0.62637270  1
  Co  Co400  1  0.62637270  0.49999999  0.68955905  1
  Co  Co401  1  0.68955905  0.49999999  0.37362730  1
  Co  Co402  1  0.37362730  0.49999999  0.68955905  1
  Co  Co403  1  0.62637270  0.49999999  0.31044095  1
  Co  Co404  1  0.37362730  0.49999999  0.31044095  1
  Co  Co405  1  0.31044095  0.49999999  0.62637270  1
  Co  Co406  1  0.31044095  0.49999999  0.37362730  1
  Co  Co407  1  0.62637270  0.68156144  0.56318635  1
  Co  Co408  1  0.62637270  0.68156144  0.43681365  1
  Co  Co409  1  0.56318635  0.68156144  0.62637270  1
  Co  Co410  1  0.56318635  0.68156144  0.37362730  1
  Co  Co411  1  0.43681365  0.68156144  0.62637270  1
  Co  Co412  1  0.37362730  0.68156144  0.43681365  1
  Co  Co413  1  0.43681365  0.68156144  0.37362730  1
  Co  Co414  1  0.37362730  0.68156144  0.56318635  1
  Co  Co415  1  0.56318635  0.31843854  0.62637270  1
  Co  Co416  1  0.56318635  0.31843854  0.37362730  1
  Co  Co417  1  0.62637270  0.31843854  0.56318635  1
  Co  Co418  1  0.43681365  0.31843854  0.62637270  1
  Co  Co419  1  0.62637270  0.31843854  0.43681365  1
  Co  Co420  1  0.43681365  0.31843854  0.37362730  1
  Co  Co421  1  0.37362730  0.31843854  0.43681365  1
  Co  Co422  1  0.37362730  0.31843854  0.56318635  1
  Co  Co423  1  0.65796587  0.56052048  0.65796587  1
  Co  Co424  1  0.65796587  0.43947951  0.65796587  1
  Co  Co425  1  0.72115222  0.43947951  0.53159317  1
  Co  Co426  1  0.72115222  0.56052048  0.53159317  1
  Co  Co427  1  0.53159317  0.56052048  0.72115222  1
  Co  Co428  1  0.53159317  0.43947951  0.72115222  1
  Co  Co429  1  0.72115222  0.43947951  0.46840682  1
  Co  Co430  1  0.72115222  0.56052048  0.46840682  1
  Co  Co431  1  0.46840682  0.43947951  0.72115222  1
  Co  Co432  1  0.46840682  0.56052048  0.72115222  1
  Co  Co433  1  0.65796587  0.56052048  0.34203412  1
  Co  Co434  1  0.65796587  0.43947951  0.34203412  1
  Co  Co435  1  0.34203412  0.56052048  0.65796587  1
  Co  Co436  1  0.34203412  0.43947951  0.65796587  1
  Co  Co437  1  0.53159317  0.56052048  0.27884777  1
  Co  Co438  1  0.53159317  0.43947951  0.27884777  1
  Co  Co439  1  0.27884777  0.56052048  0.53159317  1
  Co  Co440  1  0.27884777  0.43947951  0.53159317  1
  Co  Co441  1  0.46840682  0.43947951  0.27884777  1
  Co  Co442  1  0.46840682  0.56052048  0.27884777  1
  Co  Co443  1  0.27884777  0.56052048  0.46840682  1
  Co  Co444  1  0.27884777  0.43947951  0.46840682  1
  Co  Co445  1  0.34203412  0.56052048  0.34203412  1
  Co  Co446  1  0.34203412  0.43947951  0.34203412  1
  Co  Co447  1  0.68955905  0.62104096  0.43681365  1
  Co  Co448  1  0.56318635  0.62104096  0.68955905  1
  Co  Co449  1  0.68955905  0.62104096  0.56318635  1
  Co  Co450  1  0.43681365  0.62104096  0.68955905  1
  Co  Co451  1  0.56318635  0.37895903  0.68955905  1
  Co  Co452  1  0.43681365  0.37895903  0.68955905  1
  Co  Co453  1  0.56318635  0.62104096  0.31044095  1
  Co  Co454  1  0.68955905  0.37895903  0.43681365  1
  Co  Co455  1  0.68955905  0.37895903  0.56318635  1
  Co  Co456  1  0.43681365  0.62104096  0.31044095  1
  Co  Co457  1  0.31044095  0.62104096  0.56318635  1
  Co  Co458  1  0.31044095  0.62104096  0.43681365  1
  Co  Co459  1  0.56318635  0.37895903  0.31044095  1
  Co  Co460  1  0.43681365  0.37895903  0.31044095  1
  Co  Co461  1  0.31044095  0.37895903  0.43681365  1
  Co  Co462  1  0.31044095  0.37895903  0.56318635  1
  Co  Co463  1  0.62637270  0.56052048  0.68955905  1
  Co  Co464  1  0.68955905  0.56052048  0.62637270  1
  Co  Co465  1  0.68955905  0.43947951  0.62637270  1
  Co  Co466  1  0.62637270  0.43947951  0.68955905  1
  Co  Co467  1  0.68955905  0.43947951  0.37362730  1
  Co  Co468  1  0.62637270  0.56052048  0.31044095  1
  Co  Co469  1  0.68955905  0.56052048  0.37362730  1
  Co  Co470  1  0.37362730  0.56052048  0.68955905  1
  Co  Co471  1  0.37362730  0.43947951  0.68955905  1
  Co  Co472  1  0.62637270  0.43947951  0.31044095  1
  Co  Co473  1  0.31044095  0.56052048  0.62637270  1
  Co  Co474  1  0.31044095  0.56052048  0.37362730  1
  Co  Co475  1  0.31044095  0.43947951  0.62637270  1
  Co  Co476  1  0.37362730  0.56052048  0.31044095  1
  Co  Co477  1  0.31044095  0.43947951  0.37362730  1
  Co  Co478  1  0.37362730  0.43947951  0.31044095  1
  Co  Co479  1  0.72115222  0.49999999  0.59477952  1
  Co  Co480  1  0.59477952  0.49999999  0.72115222  1
  Co  Co481  1  0.72115222  0.49999999  0.40522047  1
  Co  Co482  1  0.40522047  0.49999999  0.72115222  1
  Co  Co483  1  0.59477952  0.49999999  0.27884777  1
  Co  Co484  1  0.27884777  0.49999999  0.59477952  1
  Co  Co485  1  0.40522047  0.49999999  0.27884777  1
  Co  Co486  1  0.27884777  0.49999999  0.40522047  1
  Co  Co487  1  0.50000000  0.74208193  0.50000000  1
  Co  Co488  1  0.50000000  0.25791806  0.50000000  1
  Co  Co489  1  0.53159317  0.68156144  0.65796587  1
  Co  Co490  1  0.65796587  0.68156144  0.53159317  1
  Co  Co491  1  0.65796587  0.31843854  0.53159317  1
  Co  Co492  1  0.53159317  0.31843854  0.65796587  1
  Co  Co493  1  0.46840682  0.68156144  0.65796587  1
  Co  Co494  1  0.65796587  0.68156144  0.46840682  1
  Co  Co495  1  0.65796587  0.31843854  0.46840682  1
  Co  Co496  1  0.46840682  0.31843854  0.65796587  1
  Co  Co497  1  0.53159317  0.68156144  0.34203412  1
  Co  Co498  1  0.34203412  0.68156144  0.53159317  1
  Co  Co499  1  0.53159317  0.31843854  0.34203412  1
  Co  Co500  1  0.34203412  0.31843854  0.53159317  1
  Co  Co501  1  0.46840682  0.68156144  0.34203412  1
  Co  Co502  1  0.34203412  0.68156144  0.46840682  1
  Co  Co503  1  0.46840682  0.31843854  0.34203412  1
  Co  Co504  1  0.34203412  0.31843854  0.46840682  1
  Co  Co505  1  0.53159317  0.74208193  0.53159317  1
  Co  Co506  1  0.53159317  0.25791806  0.53159317  1
  Co  Co507  1  0.53159317  0.74208193  0.46840682  1
  Co  Co508  1  0.46840682  0.74208193  0.53159317  1
  Co  Co509  1  0.46840682  0.25791806  0.53159317  1
  Co  Co510  1  0.53159317  0.25791806  0.46840682  1
  Co  Co511  1  0.46840682  0.74208193  0.46840682  1
  Co  Co512  1  0.46840682  0.25791806  0.46840682  1
  Co  Co513  1  0.72115222  0.43947951  0.59477952  1
  Co  Co514  1  0.72115222  0.56052048  0.59477952  1
  Co  Co515  1  0.59477952  0.56052048  0.72115222  1
  Co  Co516  1  0.59477952  0.43947951  0.72115222  1
  Co  Co517  1  0.72115222  0.56052048  0.40522047  1
  Co  Co518  1  0.72115222  0.43947951  0.40522047  1
  Co  Co519  1  0.40522047  0.56052048  0.72115222  1
  Co  Co520  1  0.40522047  0.43947951  0.72115222  1
  Co  Co521  1  0.59477952  0.56052048  0.27884777  1
  Co  Co522  1  0.59477952  0.43947951  0.27884777  1
  Co  Co523  1  0.27884777  0.56052048  0.59477952  1
  Co  Co524  1  0.27884777  0.43947951  0.59477952  1
  Co  Co525  1  0.40522047  0.43947951  0.27884777  1
  Co  Co526  1  0.40522047  0.56052048  0.27884777  1
  Co  Co527  1  0.27884777  0.56052048  0.40522047  1
  Co  Co528  1  0.27884777  0.43947951  0.40522047  1
  Co  Co529  1  0.56318635  0.74208193  0.50000000  1
  Co  Co530  1  0.50000000  0.74208193  0.43681365  1
  Co  Co531  1  0.50000000  0.74208193  0.56318635  1
  Co  Co532  1  0.43681365  0.74208193  0.50000000  1
  Co  Co533  1  0.50000000  0.25791806  0.43681365  1
  Co  Co534  1  0.50000000  0.25791806  0.56318635  1
  Co  Co535  1  0.56318635  0.25791806  0.50000000  1
  Co  Co536  1  0.43681365  0.25791806  0.50000000  1
  Co  Co537  1  0.75274540  0.49999999  0.50000000  1
  Co  Co538  1  0.50000000  0.49999999  0.75274540  1
  Co  Co539  1  0.50000000  0.49999999  0.24725460  1
  Co  Co540  1  0.24725460  0.49999999  0.50000000  1
  Co  Co541  1  0.65796587  0.62104096  0.65796587  1
  Co  Co542  1  0.65796587  0.37895903  0.65796587  1
  Co  Co543  1  0.72115222  0.62104096  0.53159317  1
  Co  Co544  1  0.53159317  0.62104096  0.72115222  1
  Co  Co545  1  0.72115222  0.37895903  0.53159317  1
  Co  Co546  1  0.53159317  0.37895903  0.72115222  1
  Co  Co547  1  0.72115222  0.62104096  0.46840682  1
  Co  Co548  1  0.72115222  0.37895903  0.46840682  1
  Co  Co549  1  0.46840682  0.62104096  0.72115222  1
  Co  Co550  1  0.46840682  0.37895903  0.72115222  1
  Co  Co551  1  0.65796587  0.62104096  0.34203412  1
  Co  Co552  1  0.34203412  0.62104096  0.65796587  1
  Co  Co553  1  0.65796587  0.37895903  0.34203412  1
  Co  Co554  1  0.34203412  0.37895903  0.65796587  1
  Co  Co555  1  0.53159317  0.62104096  0.27884777  1
  Co  Co556  1  0.53159317  0.37895903  0.27884777  1
  Co  Co557  1  0.27884777  0.62104096  0.53159317  1
  Co  Co558  1  0.27884777  0.37895903  0.53159317  1
  Co  Co559  1  0.46840682  0.62104096  0.27884777  1
  Co  Co560  1  0.27884777  0.62104096  0.46840682  1
  Co  Co561  1  0.46840682  0.37895903  0.27884777  1
  Co  Co562  1  0.27884777  0.37895903  0.46840682  1
  Co  Co563  1  0.34203412  0.62104096  0.34203412  1
  Co  Co564  1  0.34203412  0.37895903  0.34203412  1
  Co  Co565  1  0.62637270  0.68156144  0.62637270  1
  Co  Co566  1  0.62637270  0.68156144  0.37362730  1
  Co  Co567  1  0.37362730  0.68156144  0.62637270  1
  Co  Co568  1  0.37362730  0.68156144  0.37362730  1
  Co  Co569  1  0.62637270  0.31843854  0.62637270  1
  Co  Co570  1  0.62637270  0.31843854  0.37362730  1
  Co  Co571  1  0.37362730  0.31843854  0.62637270  1
  Co  Co572  1  0.37362730  0.31843854  0.37362730  1
  Co  Co573  1  0.62637270  0.62104096  0.68955905  1
  Co  Co574  1  0.68955905  0.62104096  0.62637270  1
  Co  Co575  1  0.68955905  0.62104096  0.37362730  1
  Co  Co576  1  0.62637270  0.62104096  0.31044095  1
  Co  Co577  1  0.37362730  0.62104096  0.68955905  1
  Co  Co578  1  0.62637270  0.37895903  0.68955905  1
  Co  Co579  1  0.68955905  0.37895903  0.62637270  1
  Co  Co580  1  0.68955905  0.37895903  0.37362730  1
  Co  Co581  1  0.37362730  0.37895903  0.68955905  1
  Co  Co582  1  0.31044095  0.62104096  0.62637270  1
  Co  Co583  1  0.62637270  0.37895903  0.31044095  1
  Co  Co584  1  0.31044095  0.62104096  0.37362730  1
  Co  Co585  1  0.37362730  0.62104096  0.31044095  1
  Co  Co586  1  0.31044095  0.37895903  0.62637270  1
  Co  Co587  1  0.31044095  0.37895903  0.37362730  1
  Co  Co588  1  0.37362730  0.37895903  0.31044095  1
  Co  Co589  1  0.56318635  0.74208193  0.56318635  1
  Co  Co590  1  0.56318635  0.74208193  0.43681365  1
  Co  Co591  1  0.43681365  0.74208193  0.56318635  1
  Co  Co592  1  0.56318635  0.25791806  0.56318635  1
  Co  Co593  1  0.43681365  0.74208193  0.43681365  1
  Co  Co594  1  0.56318635  0.25791806  0.43681365  1
  Co  Co595  1  0.43681365  0.25791806  0.56318635  1
  Co  Co596  1  0.43681365  0.25791806  0.43681365  1
  Co  Co597  1  0.59477952  0.68156144  0.65796587  1
  Co  Co598  1  0.65796587  0.68156144  0.59477952  1
  Co  Co599  1  0.59477952  0.31843854  0.65796587  1
  Co  Co600  1  0.65796587  0.31843854  0.59477952  1
  Co  Co601  1  0.65796587  0.68156144  0.40522047  1
  Co  Co602  1  0.40522047  0.68156144  0.65796587  1
  Co  Co603  1  0.65796587  0.31843854  0.40522047  1
  Co  Co604  1  0.40522047  0.31843854  0.65796587  1
  Co  Co605  1  0.59477952  0.68156144  0.34203412  1
  Co  Co606  1  0.34203412  0.68156144  0.59477952  1
  Co  Co607  1  0.59477952  0.31843854  0.34203412  1
  Co  Co608  1  0.34203412  0.31843854  0.59477952  1
  Co  Co609  1  0.40522047  0.68156144  0.34203412  1
  Co  Co610  1  0.34203412  0.68156144  0.40522047  1
  Co  Co611  1  0.40522047  0.31843854  0.34203412  1
  Co  Co612  1  0.34203412  0.31843854  0.40522047  1
  Co  Co613  1  0.75274540  0.56052048  0.50000000  1
  Co  Co614  1  0.75274540  0.43947951  0.50000000  1
  Co  Co615  1  0.50000000  0.56052048  0.75274540  1
  Co  Co616  1  0.50000000  0.43947951  0.75274540  1
  Co  Co617  1  0.50000000  0.56052048  0.24725460  1
  Co  Co618  1  0.50000000  0.43947951  0.24725460  1
  Co  Co619  1  0.24725460  0.56052048  0.50000000  1
  Co  Co620  1  0.24725460  0.43947951  0.50000000  1
  Co  Co621  1  0.75274540  0.49999999  0.43681365  1
  Co  Co622  1  0.75274540  0.49999999  0.56318635  1
  Co  Co623  1  0.56318635  0.49999999  0.75274540  1
  Co  Co624  1  0.43681365  0.49999999  0.75274540  1
  Co  Co625  1  0.56318635  0.49999999  0.24725460  1
  Co  Co626  1  0.43681365  0.49999999  0.24725460  1
  Co  Co627  1  0.24725460  0.49999999  0.56318635  1
  Co  Co628  1  0.24725460  0.49999999  0.43681365  1
  Co  Co629  1  0.59477952  0.74208193  0.53159317  1
  Co  Co630  1  0.53159317  0.74208193  0.59477952  1
  Co  Co631  1  0.59477952  0.25791806  0.53159317  1
  Co  Co632  1  0.53159317  0.25791806  0.59477952  1
  Co  Co633  1  0.59477952  0.74208193  0.46840682  1
  Co  Co634  1  0.59477952  0.25791806  0.46840682  1
  Co  Co635  1  0.46840682  0.74208193  0.59477952  1
  Co  Co636  1  0.46840682  0.25791806  0.59477952  1
  Co  Co637  1  0.53159317  0.74208193  0.40522047  1
  Co  Co638  1  0.40522047  0.74208193  0.53159317  1
  Co  Co639  1  0.53159317  0.25791806  0.40522047  1
  Co  Co640  1  0.40522047  0.25791806  0.53159317  1
  Co  Co641  1  0.46840682  0.74208193  0.40522047  1
  Co  Co642  1  0.40522047  0.74208193  0.46840682  1
  Co  Co643  1  0.46840682  0.25791806  0.40522047  1
  Co  Co644  1  0.40522047  0.25791806  0.46840682  1
  Co  Co645  1  0.50000000  0.68156144  0.68955905  1
  Co  Co646  1  0.68955905  0.68156144  0.50000000  1
  Co  Co647  1  0.50000000  0.31843854  0.68955905  1
  Co  Co648  1  0.68955905  0.31843854  0.50000000  1
  Co  Co649  1  0.50000000  0.68156144  0.31044095  1
  Co  Co650  1  0.31044095  0.68156144  0.50000000  1
  Co  Co651  1  0.50000000  0.31843854  0.31044095  1
  Co  Co652  1  0.31044095  0.31843854  0.50000000  1
  Co  Co653  1  0.75274540  0.43947951  0.56318635  1
  Co  Co654  1  0.75274540  0.56052048  0.56318635  1
  Co  Co655  1  0.75274540  0.43947951  0.43681365  1
  Co  Co656  1  0.75274540  0.56052048  0.43681365  1
  Co  Co657  1  0.56318635  0.56052048  0.75274540  1
  Co  Co658  1  0.43681365  0.43947951  0.75274540  1
  Co  Co659  1  0.56318635  0.43947951  0.75274540  1
  Co  Co660  1  0.43681365  0.56052048  0.75274540  1
  Co  Co661  1  0.56318635  0.56052048  0.24725460  1
  Co  Co662  1  0.56318635  0.43947951  0.24725460  1
  Co  Co663  1  0.24725460  0.56052048  0.56318635  1
  Co  Co664  1  0.24725460  0.43947951  0.56318635  1
  Co  Co665  1  0.24725460  0.56052048  0.43681365  1
  Co  Co666  1  0.43681365  0.56052048  0.24725460  1
  Co  Co667  1  0.24725460  0.43947951  0.43681365  1
  Co  Co668  1  0.43681365  0.43947951  0.24725460  1
  Co  Co669  1  0.68955905  0.49999999  0.68955905  1
  Co  Co670  1  0.68955905  0.49999999  0.31044095  1
  Co  Co671  1  0.31044095  0.49999999  0.68955905  1
  Co  Co672  1  0.31044095  0.49999999  0.31044095  1
  Co  Co673  1  0.59477952  0.62104096  0.72115222  1
  Co  Co674  1  0.72115222  0.62104096  0.59477952  1
  Co  Co675  1  0.72115222  0.37895903  0.59477952  1
  Co  Co676  1  0.59477952  0.37895903  0.72115222  1
  Co  Co677  1  0.72115222  0.62104096  0.40522047  1
  Co  Co678  1  0.72115222  0.37895903  0.40522047  1
  Co  Co679  1  0.40522047  0.62104096  0.72115222  1
  Co  Co680  1  0.40522047  0.37895903  0.72115222  1
  Co  Co681  1  0.59477952  0.62104096  0.27884777  1
  Co  Co682  1  0.59477952  0.37895903  0.27884777  1
  Co  Co683  1  0.27884777  0.62104096  0.59477952  1
  Co  Co684  1  0.27884777  0.37895903  0.59477952  1
  Co  Co685  1  0.40522047  0.62104096  0.27884777  1
  Co  Co686  1  0.27884777  0.62104096  0.40522047  1
  Co  Co687  1  0.27884777  0.37895903  0.40522047  1
  Co  Co688  1  0.40522047  0.37895903  0.27884777  1
  Co  Co689  1  0.56318635  0.68156144  0.68955905  1
  Co  Co690  1  0.68955905  0.68156144  0.43681365  1
  Co  Co691  1  0.43681365  0.68156144  0.68955905  1
  Co  Co692  1  0.68955905  0.68156144  0.56318635  1
  Co  Co693  1  0.68955905  0.31843854  0.43681365  1
  Co  Co694  1  0.68955905  0.31843854  0.56318635  1
  Co  Co695  1  0.56318635  0.31843854  0.68955905  1
  Co  Co696  1  0.56318635  0.68156144  0.31044095  1
  Co  Co697  1  0.31044095  0.68156144  0.56318635  1
  Co  Co698  1  0.43681365  0.68156144  0.31044095  1
  Co  Co699  1  0.43681365  0.31843854  0.68955905  1
  Co  Co700  1  0.31044095  0.68156144  0.43681365  1
  Co  Co701  1  0.56318635  0.31843854  0.31044095  1
  Co  Co702  1  0.31044095  0.31843854  0.56318635  1
  Co  Co703  1  0.43681365  0.31843854  0.31044095  1
  Co  Co704  1  0.31044095  0.31843854  0.43681365  1
  Co  Co705  1  0.65796587  0.49999999  0.72115222  1
  Co  Co706  1  0.72115222  0.49999999  0.65796587  1
  Co  Co707  1  0.72115222  0.49999999  0.34203412  1
  Co  Co708  1  0.34203412  0.49999999  0.72115222  1
  Co  Co709  1  0.65796587  0.49999999  0.27884777  1
  Co  Co710  1  0.27884777  0.49999999  0.65796587  1
  Co  Co711  1  0.34203412  0.49999999  0.27884777  1
  Co  Co712  1  0.27884777  0.49999999  0.34203412  1
  Co  Co713  1  0.62637270  0.74208193  0.50000000  1
  Co  Co714  1  0.50000000  0.74208193  0.62637270  1
  Co  Co715  1  0.50000000  0.74208193  0.37362730  1
  Co  Co716  1  0.62637270  0.25791806  0.50000000  1
  Co  Co717  1  0.37362730  0.74208193  0.50000000  1
  Co  Co718  1  0.50000000  0.25791806  0.37362730  1
  Co  Co719  1  0.50000000  0.25791806  0.62637270  1
  Co  Co720  1  0.37362730  0.25791806  0.50000000  1
  Co  Co721  1  0.68955905  0.43947951  0.68955905  1
  Co  Co722  1  0.68955905  0.56052048  0.68955905  1
  Co  Co723  1  0.68955905  0.56052048  0.31044095  1
  Co  Co724  1  0.68955905  0.43947951  0.31044095  1
  Co  Co725  1  0.31044095  0.56052048  0.68955905  1
  Co  Co726  1  0.31044095  0.43947951  0.68955905  1
  Co  Co727  1  0.31044095  0.56052048  0.31044095  1
  Co  Co728  1  0.31044095  0.43947951  0.31044095  1
  Co  Co729  1  0.59477952  0.74208193  0.59477952  1
  Co  Co730  1  0.59477952  0.25791806  0.59477952  1
  Co  Co731  1  0.59477952  0.74208193  0.40522047  1
  Co  Co732  1  0.40522047  0.25791806  0.59477952  1
  Co  Co733  1  0.59477952  0.25791806  0.40522047  1
  Co  Co734  1  0.40522047  0.74208193  0.59477952  1
  Co  Co735  1  0.40522047  0.25791806  0.40522047  1
  Co  Co736  1  0.40522047  0.74208193  0.40522047  1
  Co  Co737  1  0.72115222  0.43947951  0.65796587  1
  Co  Co738  1  0.72115222  0.56052048  0.65796587  1
  Co  Co739  1  0.65796587  0.56052048  0.72115222  1
  Co  Co740  1  0.65796587  0.43947951  0.72115222  1
  Co  Co741  1  0.72115222  0.43947951  0.34203412  1
  Co  Co742  1  0.72115222  0.56052048  0.34203412  1
  Co  Co743  1  0.34203412  0.56052048  0.72115222  1
  Co  Co744  1  0.34203412  0.43947951  0.72115222  1
  Co  Co745  1  0.65796587  0.56052048  0.27884777  1
  Co  Co746  1  0.65796587  0.43947951  0.27884777  1
  Co  Co747  1  0.27884777  0.43947951  0.65796587  1
  Co  Co748  1  0.27884777  0.56052048  0.65796587  1
  Co  Co749  1  0.27884777  0.56052048  0.34203412  1
  Co  Co750  1  0.34203412  0.56052048  0.27884777  1
  Co  Co751  1  0.27884777  0.43947951  0.34203412  1
  Co  Co752  1  0.34203412  0.43947951  0.27884777  1
  Co  Co753  1  0.75274540  0.62104096  0.50000000  1
  Co  Co754  1  0.50000000  0.62104096  0.75274540  1
  Co  Co755  1  0.75274540  0.37895903  0.50000000  1
  Co  Co756  1  0.50000000  0.62104096  0.24725460  1
  Co  Co757  1  0.50000000  0.37895903  0.75274540  1
  Co  Co758  1  0.24725460  0.62104096  0.50000000  1
  Co  Co759  1  0.50000000  0.37895903  0.24725460  1
  Co  Co760  1  0.24725460  0.37895903  0.50000000  1
  Co  Co761  1  0.62637270  0.74208193  0.56318635  1
  Co  Co762  1  0.62637270  0.74208193  0.43681365  1
  Co  Co763  1  0.56318635  0.74208193  0.62637270  1
  Co  Co764  1  0.56318635  0.74208193  0.37362730  1
  Co  Co765  1  0.56318635  0.25791806  0.62637270  1
  Co  Co766  1  0.37362730  0.74208193  0.56318635  1
  Co  Co767  1  0.43681365  0.74208193  0.37362730  1
  Co  Co768  1  0.62637270  0.25791806  0.56318635  1
  Co  Co769  1  0.62637270  0.25791806  0.43681365  1
  Co  Co770  1  0.43681365  0.74208193  0.62637270  1
  Co  Co771  1  0.56318635  0.25791806  0.37362730  1
  Co  Co772  1  0.37362730  0.74208193  0.43681365  1
  Co  Co773  1  0.43681365  0.25791806  0.62637270  1
  Co  Co774  1  0.37362730  0.25791806  0.43681365  1
  Co  Co775  1  0.37362730  0.25791806  0.56318635  1
  Co  Co776  1  0.43681365  0.25791806  0.37362730  1
  Co  Co777  1  0.75274540  0.49999999  0.62637270  1
  Co  Co778  1  0.75274540  0.49999999  0.37362730  1
  Co  Co779  1  0.62637270  0.49999999  0.75274540  1
  Co  Co780  1  0.37362730  0.49999999  0.75274540  1
  Co  Co781  1  0.62637270  0.49999999  0.24725460  1
  Co  Co782  1  0.37362730  0.49999999  0.24725460  1
  Co  Co783  1  0.24725460  0.49999999  0.62637270  1
  Co  Co784  1  0.24725460  0.49999999  0.37362730  1
  Co  Co785  1  0.53159317  0.49999999  0.78433857  1
  Co  Co786  1  0.78433857  0.49999999  0.53159317  1
  Co  Co787  1  0.78433857  0.49999999  0.46840682  1
  Co  Co788  1  0.46840682  0.49999999  0.78433857  1
  Co  Co789  1  0.53159317  0.49999999  0.21566142  1
  Co  Co790  1  0.21566142  0.49999999  0.53159317  1
  Co  Co791  1  0.46840682  0.49999999  0.21566142  1
  Co  Co792  1  0.21566142  0.49999999  0.46840682  1
  Co  Co793  1  0.75274540  0.62104096  0.43681365  1
  Co  Co794  1  0.75274540  0.62104096  0.56318635  1
  Co  Co795  1  0.75274540  0.37895903  0.43681365  1
  Co  Co796  1  0.75274540  0.37895903  0.56318635  1
  Co  Co797  1  0.56318635  0.62104096  0.75274540  1
  Co  Co798  1  0.43681365  0.62104096  0.75274540  1
  Co  Co799  1  0.56318635  0.37895903  0.75274540  1
  Co  Co800  1  0.56318635  0.62104096  0.24725460  1
  Co  Co801  1  0.43681365  0.37895903  0.75274540  1
  Co  Co802  1  0.43681365  0.62104096  0.24725460  1
  Co  Co803  1  0.24725460  0.62104096  0.56318635  1
  Co  Co804  1  0.56318635  0.37895903  0.24725460  1
  Co  Co805  1  0.43681365  0.37895903  0.24725460  1
  Co  Co806  1  0.24725460  0.62104096  0.43681365  1
  Co  Co807  1  0.24725460  0.37895903  0.56318635  1
  Co  Co808  1  0.24725460  0.37895903  0.43681365  1
  Co  Co809  1  0.65796587  0.68156144  0.65796587  1
  Co  Co810  1  0.65796587  0.31843854  0.65796587  1
  Co  Co811  1  0.72115222  0.68156144  0.53159317  1
  Co  Co812  1  0.53159317  0.68156144  0.72115222  1
  Co  Co813  1  0.72115222  0.31843854  0.53159317  1
  Co  Co814  1  0.53159317  0.31843854  0.72115222  1
  Co  Co815  1  0.72115222  0.68156144  0.46840682  1
  Co  Co816  1  0.46840682  0.68156144  0.72115222  1
  Co  Co817  1  0.72115222  0.31843854  0.46840682  1
  Co  Co818  1  0.46840682  0.31843854  0.72115222  1
  Co  Co819  1  0.65796587  0.68156144  0.34203412  1
  Co  Co820  1  0.34203412  0.68156144  0.65796587  1
  Co  Co821  1  0.65796587  0.31843854  0.34203412  1
  Co  Co822  1  0.34203412  0.31843854  0.65796587  1
  Co  Co823  1  0.53159317  0.68156144  0.27884777  1
  Co  Co824  1  0.27884777  0.68156144  0.53159317  1
  Co  Co825  1  0.53159317  0.31843854  0.27884777  1
  Co  Co826  1  0.27884777  0.31843854  0.53159317  1
  Co  Co827  1  0.46840682  0.68156144  0.27884777  1
  Co  Co828  1  0.27884777  0.68156144  0.46840682  1
  Co  Co829  1  0.46840682  0.31843854  0.27884777  1
  Co  Co830  1  0.27884777  0.31843854  0.46840682  1
  Co  Co831  1  0.34203412  0.68156144  0.34203412  1
  Co  Co832  1  0.34203412  0.31843854  0.34203412  1
  Co  Co833  1  0.75274540  0.43947951  0.37362730  1
  Co  Co834  1  0.75274540  0.43947951  0.62637270  1
  Co  Co835  1  0.75274540  0.56052048  0.37362730  1
  Co  Co836  1  0.75274540  0.56052048  0.62637270  1
  Co  Co837  1  0.62637270  0.56052048  0.75274540  1
  Co  Co838  1  0.62637270  0.56052048  0.24725460  1
  Co  Co839  1  0.62637270  0.43947951  0.75274540  1
  Co  Co840  1  0.37362730  0.56052048  0.75274540  1
  Co  Co841  1  0.37362730  0.43947951  0.75274540  1
  Co  Co842  1  0.62637270  0.43947951  0.24725460  1
  Co  Co843  1  0.37362730  0.43947951  0.24725460  1
  Co  Co844  1  0.24725460  0.56052048  0.62637270  1
  Co  Co845  1  0.37362730  0.56052048  0.24725460  1
  Co  Co846  1  0.24725460  0.43947951  0.62637270  1
  Co  Co847  1  0.24725460  0.56052048  0.37362730  1
  Co  Co848  1  0.24725460  0.43947951  0.37362730  1
  Co  Co849  1  0.65796587  0.74208193  0.53159317  1
  Co  Co850  1  0.53159317  0.25791806  0.65796587  1
  Co  Co851  1  0.53159317  0.74208193  0.65796587  1
  Co  Co852  1  0.65796587  0.25791806  0.53159317  1
  Co  Co853  1  0.46840682  0.74208193  0.65796587  1
  Co  Co854  1  0.65796587  0.74208193  0.46840682  1
  Co  Co855  1  0.65796587  0.25791806  0.46840682  1
  Co  Co856  1  0.46840682  0.25791806  0.65796587  1
  Co  Co857  1  0.53159317  0.74208193  0.34203412  1
  Co  Co858  1  0.53159317  0.25791806  0.34203412  1
  Co  Co859  1  0.34203412  0.74208193  0.53159317  1
  Co  Co860  1  0.34203412  0.25791806  0.53159317  1
  Co  Co861  1  0.34203412  0.74208193  0.46840682  1
  Co  Co862  1  0.46840682  0.74208193  0.34203412  1
  Co  Co863  1  0.46840682  0.25791806  0.34203412  1
  Co  Co864  1  0.34203412  0.25791806  0.46840682  1
  Co  Co865  1  0.62637270  0.68156144  0.31044095  1
  Co  Co866  1  0.68955905  0.68156144  0.37362730  1
  Co  Co867  1  0.68955905  0.68156144  0.62637270  1
  Co  Co868  1  0.62637270  0.68156144  0.68955905  1
  Co  Co869  1  0.37362730  0.68156144  0.68955905  1
  Co  Co870  1  0.68955905  0.31843854  0.62637270  1
  Co  Co871  1  0.31044095  0.68156144  0.62637270  1
  Co  Co872  1  0.68955905  0.31843854  0.37362730  1
  Co  Co873  1  0.62637270  0.31843854  0.68955905  1
  Co  Co874  1  0.37362730  0.31843854  0.68955905  1
  Co  Co875  1  0.37362730  0.68156144  0.31044095  1
  Co  Co876  1  0.31044095  0.68156144  0.37362730  1
  Co  Co877  1  0.62637270  0.31843854  0.31044095  1
  Co  Co878  1  0.31044095  0.31843854  0.62637270  1
  Co  Co879  1  0.37362730  0.31843854  0.31044095  1
  Co  Co880  1  0.31044095  0.31843854  0.37362730  1
  Co  Co881  1  0.53159317  0.56052048  0.78433857  1
  Co  Co882  1  0.53159317  0.43947951  0.78433857  1
  Co  Co883  1  0.78433857  0.56052048  0.53159317  1
  Co  Co884  1  0.78433857  0.43947951  0.53159317  1
  Co  Co885  1  0.46840682  0.56052048  0.78433857  1
  Co  Co886  1  0.78433857  0.56052048  0.46840682  1
  Co  Co887  1  0.46840682  0.43947951  0.78433857  1
  Co  Co888  1  0.78433857  0.43947951  0.46840682  1
  Co  Co889  1  0.53159317  0.56052048  0.21566142  1
  Co  Co890  1  0.53159317  0.43947951  0.21566142  1
  Co  Co891  1  0.21566142  0.56052048  0.53159317  1
  Co  Co892  1  0.21566142  0.43947951  0.53159317  1
  Co  Co893  1  0.46840682  0.56052048  0.21566142  1
  Co  Co894  1  0.46840682  0.43947951  0.21566142  1
  Co  Co895  1  0.21566142  0.56052048  0.46840682  1
  Co  Co896  1  0.21566142  0.43947951  0.46840682  1
  Co  Co897  1  0.68955905  0.37895903  0.68955905  1
  Co  Co898  1  0.68955905  0.62104096  0.31044095  1
  Co  Co899  1  0.68955905  0.62104096  0.68955905  1
  Co  Co900  1  0.68955905  0.37895903  0.31044095  1
  Co  Co901  1  0.31044095  0.62104096  0.68955905  1
  Co  Co902  1  0.31044095  0.37895903  0.68955905  1
  Co  Co903  1  0.31044095  0.62104096  0.31044095  1
  Co  Co904  1  0.31044095  0.37895903  0.31044095  1
  Co  Co905  1  0.72115222  0.37895903  0.65796587  1
  Co  Co906  1  0.72115222  0.62104096  0.65796587  1
  Co  Co907  1  0.65796587  0.62104096  0.72115222  1
  Co  Co908  1  0.65796587  0.37895903  0.72115222  1
  Co  Co909  1  0.72115222  0.62104096  0.34203412  1
  Co  Co910  1  0.72115222  0.37895903  0.34203412  1
  Co  Co911  1  0.34203412  0.62104096  0.72115222  1
  Co  Co912  1  0.34203412  0.37895903  0.72115222  1
  Co  Co913  1  0.65796587  0.62104096  0.27884777  1
  Co  Co914  1  0.27884777  0.62104096  0.65796587  1
  Co  Co915  1  0.65796587  0.37895903  0.27884777  1
  Co  Co916  1  0.27884777  0.37895903  0.65796587  1
  Co  Co917  1  0.27884777  0.62104096  0.34203412  1
  Co  Co918  1  0.34203412  0.62104096  0.27884777  1
  Co  Co919  1  0.34203412  0.37895903  0.27884777  1
  Co  Co920  1  0.27884777  0.37895903  0.34203412  1
  Co  Co921  1  0.59477952  0.49999999  0.78433857  1
  Co  Co922  1  0.78433857  0.49999999  0.59477952  1
  Co  Co923  1  0.40522047  0.49999999  0.78433857  1
  Co  Co924  1  0.78433857  0.49999999  0.40522047  1
  Co  Co925  1  0.59477952  0.49999999  0.21566142  1
  Co  Co926  1  0.21566142  0.49999999  0.59477952  1
  Co  Co927  1  0.40522047  0.49999999  0.21566142  1
  Co  Co928  1  0.21566142  0.49999999  0.40522047  1
  Co  Co929  1  0.62637270  0.74208193  0.62637270  1
  Co  Co930  1  0.62637270  0.74208193  0.37362730  1
  Co  Co931  1  0.37362730  0.74208193  0.62637270  1
  Co  Co932  1  0.62637270  0.25791806  0.62637270  1
  Co  Co933  1  0.37362730  0.25791806  0.62637270  1
  Co  Co934  1  0.62637270  0.25791806  0.37362730  1
  Co  Co935  1  0.37362730  0.74208193  0.37362730  1
  Co  Co936  1  0.37362730  0.25791806  0.37362730  1
  Co  Co937  1  0.59477952  0.68156144  0.72115222  1
  Co  Co938  1  0.72115222  0.68156144  0.59477952  1
  Co  Co939  1  0.72115222  0.31843854  0.59477952  1
  Co  Co940  1  0.59477952  0.31843854  0.72115222  1
  Co  Co941  1  0.72115222  0.68156144  0.40522047  1
  Co  Co942  1  0.40522047  0.68156144  0.72115222  1
  Co  Co943  1  0.72115222  0.31843854  0.40522047  1
  Co  Co944  1  0.40522047  0.31843854  0.72115222  1
  Co  Co945  1  0.59477952  0.68156144  0.27884777  1
  Co  Co946  1  0.27884777  0.68156144  0.59477952  1
  Co  Co947  1  0.59477952  0.31843854  0.27884777  1
  Co  Co948  1  0.27884777  0.31843854  0.59477952  1
  Co  Co949  1  0.27884777  0.68156144  0.40522047  1
  Co  Co950  1  0.40522047  0.68156144  0.27884777  1
  Co  Co951  1  0.40522047  0.31843854  0.27884777  1
  Co  Co952  1  0.27884777  0.31843854  0.40522047  1
  Co  Co953  1  0.50000000  0.80260241  0.50000000  1
  Co  Co954  1  0.50000000  0.19739758  0.50000000  1
  Co  Co955  1  0.59477952  0.25791806  0.65796587  1
  Co  Co956  1  0.65796587  0.74208193  0.59477952  1
  Co  Co957  1  0.59477952  0.74208193  0.65796587  1
  Co  Co958  1  0.65796587  0.25791806  0.59477952  1
  Co  Co959  1  0.65796587  0.74208193  0.40522047  1
  Co  Co960  1  0.65796587  0.25791806  0.40522047  1
  Co  Co961  1  0.40522047  0.25791806  0.65796587  1
  Co  Co962  1  0.40522047  0.74208193  0.65796587  1
  Co  Co963  1  0.59477952  0.74208193  0.34203412  1
  Co  Co964  1  0.34203412  0.25791806  0.59477952  1
  Co  Co965  1  0.59477952  0.25791806  0.34203412  1
  Co  Co966  1  0.34203412  0.74208193  0.59477952  1
  Co  Co967  1  0.40522047  0.74208193  0.34203412  1
  Co  Co968  1  0.40522047  0.25791806  0.34203412  1
  Co  Co969  1  0.34203412  0.25791806  0.40522047  1
  Co  Co970  1  0.34203412  0.74208193  0.40522047  1
  Co  Co971  1  0.59477952  0.56052048  0.78433857  1
  Co  Co972  1  0.78433857  0.56052048  0.59477952  1
  Co  Co973  1  0.78433857  0.43947951  0.59477952  1
  Co  Co974  1  0.59477952  0.43947951  0.78433857  1
  Co  Co975  1  0.78433857  0.56052048  0.40522047  1
  Co  Co976  1  0.40522047  0.43947951  0.78433857  1
  Co  Co977  1  0.40522047  0.56052048  0.78433857  1
  Co  Co978  1  0.78433857  0.43947951  0.40522047  1
  Co  Co979  1  0.59477952  0.56052048  0.21566142  1
  Co  Co980  1  0.59477952  0.43947951  0.21566142  1
  Co  Co981  1  0.21566142  0.43947951  0.59477952  1
  Co  Co982  1  0.21566142  0.56052048  0.59477952  1
  Co  Co983  1  0.40522047  0.43947951  0.21566142  1
  Co  Co984  1  0.40522047  0.56052048  0.21566142  1
  Co  Co985  1  0.21566142  0.56052048  0.40522047  1
  Co  Co986  1  0.21566142  0.43947951  0.40522047  1
  Co  Co987  1  0.53159317  0.80260241  0.53159317  1
  Co  Co988  1  0.53159317  0.19739758  0.53159317  1
  Co  Co989  1  0.53159317  0.80260241  0.46840682  1
  Co  Co990  1  0.53159317  0.19739758  0.46840682  1
  Co  Co991  1  0.46840682  0.80260241  0.53159317  1
  Co  Co992  1  0.46840682  0.19739758  0.53159317  1
  Co  Co993  1  0.46840682  0.80260241  0.46840682  1
  Co  Co994  1  0.46840682  0.19739758  0.46840682  1
  Co  Co995  1  0.75274540  0.62104096  0.62637270  1
  Co  Co996  1  0.75274540  0.62104096  0.37362730  1
  Co  Co997  1  0.75274540  0.37895903  0.37362730  1
  Co  Co998  1  0.75274540  0.37895903  0.62637270  1
  Co  Co999  1  0.62637270  0.62104096  0.75274540  1
  Co  Co1000  1  0.62637270  0.62104096  0.24725460  1
  Co  Co1001  1  0.37362730  0.62104096  0.75274540  1
  Co  Co1002  1  0.62637270  0.37895903  0.75274540  1
  Co  Co1003  1  0.37362730  0.37895903  0.75274540  1
  Co  Co1004  1  0.62637270  0.37895903  0.24725460  1
  Co  Co1005  1  0.37362730  0.62104096  0.24725460  1
  Co  Co1006  1  0.24725460  0.62104096  0.37362730  1
  Co  Co1007  1  0.24725460  0.62104096  0.62637270  1
  Co  Co1008  1  0.24725460  0.37895903  0.62637270  1
  Co  Co1009  1  0.37362730  0.37895903  0.24725460  1
  Co  Co1010  1  0.24725460  0.37895903  0.37362730  1
  Co  Co1011  1  0.50000000  0.25791806  0.68955905  1
  Co  Co1012  1  0.68955905  0.74208193  0.50000000  1
  Co  Co1013  1  0.50000000  0.74208193  0.68955905  1
  Co  Co1014  1  0.68955905  0.25791806  0.50000000  1
  Co  Co1015  1  0.50000000  0.74208193  0.31044095  1
  Co  Co1016  1  0.50000000  0.25791806  0.31044095  1
  Co  Co1017  1  0.31044095  0.74208193  0.50000000  1
  Co  Co1018  1  0.31044095  0.25791806  0.50000000  1
  Co  Co1019  1  0.50000000  0.80260241  0.43681365  1
  Co  Co1020  1  0.56318635  0.80260241  0.50000000  1
  Co  Co1021  1  0.43681365  0.80260241  0.50000000  1
  Co  Co1022  1  0.56318635  0.19739758  0.50000000  1
  Co  Co1023  1  0.50000000  0.80260241  0.56318635  1
  Co  Co1024  1  0.43681365  0.19739758  0.50000000  1
  Co  Co1025  1  0.50000000  0.19739758  0.56318635  1
  Co  Co1026  1  0.50000000  0.19739758  0.43681365  1
  Co  Co1027  1  0.53159317  0.62104096  0.78433857  1
  Co  Co1028  1  0.78433857  0.62104096  0.53159317  1
  Co  Co1029  1  0.53159317  0.37895903  0.78433857  1
  Co  Co1030  1  0.78433857  0.37895903  0.53159317  1
  Co  Co1031  1  0.46840682  0.62104096  0.78433857  1
  Co  Co1032  1  0.78433857  0.62104096  0.46840682  1
  Co  Co1033  1  0.46840682  0.37895903  0.78433857  1
  Co  Co1034  1  0.78433857  0.37895903  0.46840682  1
  Co  Co1035  1  0.53159317  0.62104096  0.21566142  1
  Co  Co1036  1  0.53159317  0.37895903  0.21566142  1
  Co  Co1037  1  0.21566142  0.62104096  0.53159317  1
  Co  Co1038  1  0.21566142  0.37895903  0.53159317  1
  Co  Co1039  1  0.46840682  0.62104096  0.21566142  1
  Co  Co1040  1  0.46840682  0.37895903  0.21566142  1
  Co  Co1041  1  0.21566142  0.62104096  0.46840682  1
  Co  Co1042  1  0.21566142  0.37895903  0.46840682  1
  Co  Co1043  1  0.75274540  0.68156144  0.50000000  1
  Co  Co1044  1  0.75274540  0.31843854  0.50000000  1
  Co  Co1045  1  0.50000000  0.68156144  0.75274540  1
  Co  Co1046  1  0.50000000  0.68156144  0.24725460  1
  Co  Co1047  1  0.50000000  0.31843854  0.75274540  1
  Co  Co1048  1  0.24725460  0.68156144  0.50000000  1
  Co  Co1049  1  0.50000000  0.31843854  0.24725460  1
  Co  Co1050  1  0.24725460  0.31843854  0.50000000  1
  Co  Co1051  1  0.72115222  0.49999999  0.72115222  1
  Co  Co1052  1  0.72115222  0.49999999  0.27884777  1
  Co  Co1053  1  0.27884777  0.49999999  0.72115222  1
  Co  Co1054  1  0.27884777  0.49999999  0.27884777  1
  Co  Co1055  1  0.68955905  0.74208193  0.43681365  1
  Co  Co1056  1  0.68955905  0.74208193  0.56318635  1
  Co  Co1057  1  0.56318635  0.25791806  0.68955905  1
  Co  Co1058  1  0.68955905  0.25791806  0.43681365  1
  Co  Co1059  1  0.56318635  0.74208193  0.68955905  1
  Co  Co1060  1  0.68955905  0.25791806  0.56318635  1
  Co  Co1061  1  0.56318635  0.74208193  0.31044095  1
  Co  Co1062  1  0.43681365  0.74208193  0.68955905  1
  Co  Co1063  1  0.43681365  0.25791806  0.68955905  1
  Co  Co1064  1  0.43681365  0.74208193  0.31044095  1
  Co  Co1065  1  0.31044095  0.74208193  0.43681365  1
  Co  Co1066  1  0.56318635  0.25791806  0.31044095  1
  Co  Co1067  1  0.31044095  0.74208193  0.56318635  1
  Co  Co1068  1  0.31044095  0.25791806  0.56318635  1
  Co  Co1069  1  0.31044095  0.25791806  0.43681365  1
  Co  Co1070  1  0.43681365  0.25791806  0.31044095  1
  Co  Co1071  1  0.56318635  0.80260241  0.43681365  1
  Co  Co1072  1  0.56318635  0.19739758  0.56318635  1
  Co  Co1073  1  0.56318635  0.80260241  0.56318635  1
  Co  Co1074  1  0.43681365  0.80260241  0.43681365  1
  Co  Co1075  1  0.56318635  0.19739758  0.43681365  1
  Co  Co1076  1  0.43681365  0.19739758  0.56318635  1
  Co  Co1077  1  0.43681365  0.19739758  0.43681365  1
  Co  Co1078  1  0.43681365  0.80260241  0.56318635  1
  Co  Co1079  1  0.75274540  0.49999999  0.68955905  1
  Co  Co1080  1  0.75274540  0.49999999  0.31044095  1
  Co  Co1081  1  0.68955905  0.49999999  0.75274540  1
  Co  Co1082  1  0.50000000  0.49999999  0.81593175  1
  Co  Co1083  1  0.81593175  0.49999999  0.50000000  1
  Co  Co1084  1  0.31044095  0.49999999  0.75274540  1
  Co  Co1085  1  0.68955905  0.49999999  0.24725460  1
  Co  Co1086  1  0.50000000  0.49999999  0.18406825  1
  Co  Co1087  1  0.24725460  0.49999999  0.68955905  1
  Co  Co1088  1  0.31044095  0.49999999  0.24725460  1
  Co  Co1089  1  0.18406825  0.49999999  0.50000000  1
  Co  Co1090  1  0.24725460  0.49999999  0.31044095  1
  Co  Co1091  1  0.75274540  0.68156144  0.43681365  1
  Co  Co1092  1  0.56318635  0.68156144  0.75274540  1
  Co  Co1093  1  0.75274540  0.68156144  0.56318635  1
  Co  Co1094  1  0.43681365  0.68156144  0.75274540  1
  Co  Co1095  1  0.75274540  0.31843854  0.43681365  1
  Co  Co1096  1  0.75274540  0.31843854  0.56318635  1
  Co  Co1097  1  0.56318635  0.68156144  0.24725460  1
  Co  Co1098  1  0.56318635  0.31843854  0.75274540  1
  Co  Co1099  1  0.24725460  0.68156144  0.43681365  1
  Co  Co1100  1  0.43681365  0.68156144  0.24725460  1
  Co  Co1101  1  0.24725460  0.68156144  0.56318635  1
  Co  Co1102  1  0.43681365  0.31843854  0.75274540  1
  Co  Co1103  1  0.43681365  0.31843854  0.24725460  1
  Co  Co1104  1  0.56318635  0.31843854  0.24725460  1
  Co  Co1105  1  0.24725460  0.31843854  0.56318635  1
  Co  Co1106  1  0.24725460  0.31843854  0.43681365  1
  Co  Co1107  1  0.72115222  0.43947951  0.72115222  1
  Co  Co1108  1  0.72115222  0.56052048  0.72115222  1
  Co  Co1109  1  0.72115222  0.56052048  0.27884777  1
  Co  Co1110  1  0.72115222  0.43947951  0.27884777  1
  Co  Co1111  1  0.27884777  0.56052048  0.72115222  1
  Co  Co1112  1  0.27884777  0.43947951  0.72115222  1
  Co  Co1113  1  0.27884777  0.56052048  0.27884777  1
  Co  Co1114  1  0.27884777  0.43947951  0.27884777  1
  Co  Co1115  1  0.59477952  0.80260241  0.53159317  1
  Co  Co1116  1  0.53159317  0.80260241  0.59477952  1
  Co  Co1117  1  0.59477952  0.19739758  0.53159317  1
  Co  Co1118  1  0.53159317  0.19739758  0.59477952  1
  Co  Co1119  1  0.59477952  0.80260241  0.46840682  1
  Co  Co1120  1  0.46840682  0.80260241  0.59477952  1
  Co  Co1121  1  0.46840682  0.19739758  0.59477952  1
  Co  Co1122  1  0.59477952  0.19739758  0.46840682  1
  Co  Co1123  1  0.53159317  0.80260241  0.40522047  1
  Co  Co1124  1  0.53159317  0.19739758  0.40522047  1
  Co  Co1125  1  0.40522047  0.80260241  0.53159317  1
  Co  Co1126  1  0.40522047  0.19739758  0.53159317  1
  Co  Co1127  1  0.46840682  0.80260241  0.40522047  1
  Co  Co1128  1  0.40522047  0.19739758  0.46840682  1
  Co  Co1129  1  0.40522047  0.80260241  0.46840682  1
  Co  Co1130  1  0.46840682  0.19739758  0.40522047  1
  Co  Co1131  1  0.75274540  0.43947951  0.68955905  1
  Co  Co1132  1  0.68955905  0.56052048  0.75274540  1
  Co  Co1133  1  0.75274540  0.43947951  0.31044095  1
  Co  Co1134  1  0.75274540  0.56052048  0.31044095  1
  Co  Co1135  1  0.68955905  0.43947951  0.75274540  1
  Co  Co1136  1  0.75274540  0.56052048  0.68955905  1
  Co  Co1137  1  0.68955905  0.56052048  0.24725460  1
  Co  Co1138  1  0.81593175  0.43947951  0.50000000  1
  Co  Co1139  1  0.81593175  0.56052048  0.50000000  1
  Co  Co1140  1  0.50000000  0.56052048  0.81593175  1
  Co  Co1141  1  0.50000000  0.43947951  0.81593175  1
  Co  Co1142  1  0.31044095  0.56052048  0.75274540  1
  Co  Co1143  1  0.68955905  0.43947951  0.24725460  1
  Co  Co1144  1  0.50000000  0.43947951  0.18406825  1
  Co  Co1145  1  0.50000000  0.56052048  0.18406825  1
  Co  Co1146  1  0.24725460  0.56052048  0.68955905  1
  Co  Co1147  1  0.24725460  0.43947951  0.68955905  1
  Co  Co1148  1  0.31044095  0.43947951  0.75274540  1
  Co  Co1149  1  0.24725460  0.43947951  0.31044095  1
  Co  Co1150  1  0.31044095  0.56052048  0.24725460  1
  Co  Co1151  1  0.31044095  0.43947951  0.24725460  1
  Co  Co1152  1  0.24725460  0.56052048  0.31044095  1
  Co  Co1153  1  0.18406825  0.56052048  0.50000000  1
  Co  Co1154  1  0.18406825  0.43947951  0.50000000  1
  Co  Co1155  1  0.81593175  0.49999999  0.43681365  1
  Co  Co1156  1  0.81593175  0.49999999  0.56318635  1
  Co  Co1157  1  0.43681365  0.49999999  0.81593175  1
  Co  Co1158  1  0.56318635  0.49999999  0.81593175  1
  Co  Co1159  1  0.56318635  0.49999999  0.18406825  1
  Co  Co1160  1  0.43681365  0.49999999  0.18406825  1
  Co  Co1161  1  0.18406825  0.49999999  0.43681365  1
  Co  Co1162  1  0.18406825  0.49999999  0.56318635  1
  Co  Co1163  1  0.59477952  0.62104096  0.78433857  1
  Co  Co1164  1  0.78433857  0.62104096  0.59477952  1
  Co  Co1165  1  0.59477952  0.37895903  0.78433857  1
  Co  Co1166  1  0.78433857  0.37895903  0.59477952  1
  Co  Co1167  1  0.78433857  0.62104096  0.40522047  1
  Co  Co1168  1  0.40522047  0.37895903  0.78433857  1
  Co  Co1169  1  0.40522047  0.62104096  0.78433857  1
  Co  Co1170  1  0.78433857  0.37895903  0.40522047  1
  Co  Co1171  1  0.59477952  0.62104096  0.21566142  1
  Co  Co1172  1  0.59477952  0.37895903  0.21566142  1
  Co  Co1173  1  0.21566142  0.62104096  0.59477952  1
  Co  Co1174  1  0.21566142  0.37895903  0.59477952  1
  Co  Co1175  1  0.40522047  0.37895903  0.21566142  1
  Co  Co1176  1  0.40522047  0.62104096  0.21566142  1
  Co  Co1177  1  0.21566142  0.62104096  0.40522047  1
  Co  Co1178  1  0.21566142  0.37895903  0.40522047  1
  Co  Co1179  1  0.68955905  0.31843854  0.68955905  1
  Co  Co1180  1  0.68955905  0.68156144  0.68955905  1
  Co  Co1181  1  0.68955905  0.68156144  0.31044095  1
  Co  Co1182  1  0.31044095  0.68156144  0.68955905  1
  Co  Co1183  1  0.68955905  0.31843854  0.31044095  1
  Co  Co1184  1  0.31044095  0.68156144  0.31044095  1
  Co  Co1185  1  0.31044095  0.31843854  0.68955905  1
  Co  Co1186  1  0.31044095  0.31843854  0.31044095  1
  Co  Co1187  1  0.65796587  0.49999999  0.78433857  1
  Co  Co1188  1  0.78433857  0.49999999  0.65796587  1
  Co  Co1189  1  0.34203412  0.49999999  0.78433857  1
  Co  Co1190  1  0.78433857  0.49999999  0.34203412  1
  Co  Co1191  1  0.65796587  0.49999999  0.21566142  1
  Co  Co1192  1  0.21566142  0.49999999  0.65796587  1
  Co  Co1193  1  0.34203412  0.49999999  0.21566142  1
  Co  Co1194  1  0.21566142  0.49999999  0.34203412  1
  Co  Co1195  1  0.65796587  0.68156144  0.72115222  1
  Co  Co1196  1  0.72115222  0.31843854  0.65796587  1
  Co  Co1197  1  0.72115222  0.68156144  0.65796587  1
  Co  Co1198  1  0.65796587  0.31843854  0.72115222  1
  Co  Co1199  1  0.72115222  0.68156144  0.34203412  1
  Co  Co1200  1  0.72115222  0.31843854  0.34203412  1
  Co  Co1201  1  0.34203412  0.68156144  0.72115222  1
  Co  Co1202  1  0.34203412  0.31843854  0.72115222  1
  Co  Co1203  1  0.27884777  0.68156144  0.65796587  1
  Co  Co1204  1  0.65796587  0.68156144  0.27884777  1
  Co  Co1205  1  0.65796587  0.31843854  0.27884777  1
  Co  Co1206  1  0.27884777  0.31843854  0.65796587  1
  Co  Co1207  1  0.27884777  0.68156144  0.34203412  1
  Co  Co1208  1  0.34203412  0.68156144  0.27884777  1
  Co  Co1209  1  0.27884777  0.31843854  0.34203412  1
  Co  Co1210  1  0.34203412  0.31843854  0.27884777  1
  Co  Co1211  1  0.81593175  0.56052048  0.43681365  1
  Co  Co1212  1  0.56318635  0.56052048  0.81593175  1
  Co  Co1213  1  0.81593175  0.43947951  0.43681365  1
  Co  Co1214  1  0.81593175  0.56052048  0.56318635  1
  Co  Co1215  1  0.43681365  0.56052048  0.81593175  1
  Co  Co1216  1  0.81593175  0.43947951  0.56318635  1
  Co  Co1217  1  0.56318635  0.56052048  0.18406825  1
  Co  Co1218  1  0.43681365  0.43947951  0.81593175  1
  Co  Co1219  1  0.56318635  0.43947951  0.81593175  1
  Co  Co1220  1  0.43681365  0.56052048  0.18406825  1
  Co  Co1221  1  0.56318635  0.43947951  0.18406825  1
  Co  Co1222  1  0.43681365  0.43947951  0.18406825  1
  Co  Co1223  1  0.18406825  0.56052048  0.43681365  1
  Co  Co1224  1  0.18406825  0.43947951  0.43681365  1
  Co  Co1225  1  0.18406825  0.43947951  0.56318635  1
  Co  Co1226  1  0.18406825  0.56052048  0.56318635  1
  Co  Co1227  1  0.62637270  0.80260241  0.50000000  1
  Co  Co1228  1  0.50000000  0.80260241  0.37362730  1
  Co  Co1229  1  0.50000000  0.80260241  0.62637270  1
  Co  Co1230  1  0.50000000  0.19739758  0.62637270  1
  Co  Co1231  1  0.37362730  0.19739758  0.50000000  1
  Co  Co1232  1  0.37362730  0.80260241  0.50000000  1
  Co  Co1233  1  0.50000000  0.19739758  0.37362730  1
  Co  Co1234  1  0.62637270  0.19739758  0.50000000  1
  Co  Co1235  1  0.65796587  0.25791806  0.65796587  1
  Co  Co1236  1  0.65796587  0.74208193  0.65796587  1
  Co  Co1237  1  0.53159317  0.74208193  0.72115222  1
  Co  Co1238  1  0.72115222  0.74208193  0.53159317  1
  Co  Co1239  1  0.72115222  0.25791806  0.53159317  1
  Co  Co1240  1  0.53159317  0.25791806  0.72115222  1
  Co  Co1241  1  0.72115222  0.74208193  0.46840682  1
  Co  Co1242  1  0.72115222  0.25791806  0.46840682  1
  Co  Co1243  1  0.46840682  0.74208193  0.72115222  1
  Co  Co1244  1  0.46840682  0.25791806  0.72115222  1
  Co  Co1245  1  0.65796587  0.25791806  0.34203412  1
  Co  Co1246  1  0.65796587  0.74208193  0.34203412  1
  Co  Co1247  1  0.34203412  0.74208193  0.65796587  1
  Co  Co1248  1  0.34203412  0.25791806  0.65796587  1
  Co  Co1249  1  0.53159317  0.74208193  0.27884777  1
  Co  Co1250  1  0.53159317  0.25791806  0.27884777  1
  Co  Co1251  1  0.27884777  0.25791806  0.53159317  1
  Co  Co1252  1  0.27884777  0.74208193  0.53159317  1
  Co  Co1253  1  0.46840682  0.74208193  0.27884777  1
  Co  Co1254  1  0.27884777  0.74208193  0.46840682  1
  Co  Co1255  1  0.27884777  0.25791806  0.46840682  1
  Co  Co1256  1  0.46840682  0.25791806  0.27884777  1
  Co  Co1257  1  0.34203412  0.74208193  0.34203412  1
  Co  Co1258  1  0.34203412  0.25791806  0.34203412  1
  Co  Co1259  1  0.65796587  0.43947951  0.78433857  1
  Co  Co1260  1  0.65796587  0.56052048  0.78433857  1
  Co  Co1261  1  0.78433857  0.43947951  0.65796587  1
  Co  Co1262  1  0.78433857  0.56052048  0.65796587  1
  Co  Co1263  1  0.78433857  0.43947951  0.34203412  1
  Co  Co1264  1  0.78433857  0.56052048  0.34203412  1
  Co  Co1265  1  0.34203412  0.56052048  0.78433857  1
  Co  Co1266  1  0.34203412  0.43947951  0.78433857  1
  Co  Co1267  1  0.65796587  0.43947951  0.21566142  1
  Co  Co1268  1  0.65796587  0.56052048  0.21566142  1
  Co  Co1269  1  0.21566142  0.56052048  0.65796587  1
  Co  Co1270  1  0.21566142  0.43947951  0.65796587  1
  Co  Co1271  1  0.34203412  0.56052048  0.21566142  1
  Co  Co1272  1  0.34203412  0.43947951  0.21566142  1
  Co  Co1273  1  0.21566142  0.56052048  0.34203412  1
  Co  Co1274  1  0.21566142  0.43947951  0.34203412  1
  Co  Co1275  1  0.59477952  0.80260241  0.59477952  1
  Co  Co1276  1  0.59477952  0.19739758  0.59477952  1
  Co  Co1277  1  0.59477952  0.80260241  0.40522047  1
  Co  Co1278  1  0.40522047  0.19739758  0.59477952  1
  Co  Co1279  1  0.40522047  0.80260241  0.59477952  1
  Co  Co1280  1  0.59477952  0.19739758  0.40522047  1
  Co  Co1281  1  0.40522047  0.80260241  0.40522047  1
  Co  Co1282  1  0.40522047  0.19739758  0.40522047  1
  Co  Co1283  1  0.68955905  0.25791806  0.62637270  1
  Co  Co1284  1  0.68955905  0.74208193  0.37362730  1
  Co  Co1285  1  0.37362730  0.74208193  0.68955905  1
  Co  Co1286  1  0.62637270  0.25791806  0.68955905  1
  Co  Co1287  1  0.62637270  0.74208193  0.68955905  1
  Co  Co1288  1  0.62637270  0.74208193  0.31044095  1
  Co  Co1289  1  0.68955905  0.74208193  0.62637270  1
  Co  Co1290  1  0.37362730  0.25791806  0.68955905  1
  Co  Co1291  1  0.68955905  0.25791806  0.37362730  1
  Co  Co1292  1  0.31044095  0.25791806  0.62637270  1
  Co  Co1293  1  0.31044095  0.74208193  0.62637270  1
  Co  Co1294  1  0.31044095  0.74208193  0.37362730  1
  Co  Co1295  1  0.62637270  0.25791806  0.31044095  1
  Co  Co1296  1  0.37362730  0.74208193  0.31044095  1
  Co  Co1297  1  0.31044095  0.25791806  0.37362730  1
  Co  Co1298  1  0.37362730  0.25791806  0.31044095  1
  Pt  Pt1299  1  0.53159317  0.46973976  0.50000000  1
  Pt  Pt1300  1  0.50000000  0.46973976  0.53159317  1
  Pt  Pt1301  1  0.53159317  0.53026024  0.50000000  1
  Pt  Pt1302  1  0.50000000  0.53026024  0.53159317  1
  Pt  Pt1303  1  0.50000000  0.46973976  0.46840682  1
  Pt  Pt1304  1  0.46840682  0.46973976  0.50000000  1
  Pt  Pt1305  1  0.50000000  0.53026024  0.46840682  1
  Pt  Pt1306  1  0.46840682  0.53026024  0.50000000  1
  Pt  Pt1307  1  0.56318635  0.46973976  0.53159317  1
  Pt  Pt1308  1  0.53159317  0.46973976  0.56318635  1
  Pt  Pt1309  1  0.53159317  0.46973976  0.43681365  1
  Pt  Pt1310  1  0.43681365  0.46973976  0.53159317  1
  Pt  Pt1311  1  0.56318635  0.53026024  0.53159317  1
  Pt  Pt1312  1  0.53159317  0.53026024  0.43681365  1
  Pt  Pt1313  1  0.53159317  0.53026024  0.56318635  1
  Pt  Pt1314  1  0.43681365  0.53026024  0.53159317  1
  Pt  Pt1315  1  0.56318635  0.46973976  0.46840682  1
  Pt  Pt1316  1  0.46840682  0.46973976  0.56318635  1
  Pt  Pt1317  1  0.46840682  0.46973976  0.43681365  1
  Pt  Pt1318  1  0.43681365  0.46973976  0.46840682  1
  Pt  Pt1319  1  0.56318635  0.53026024  0.46840682  1
  Pt  Pt1320  1  0.46840682  0.53026024  0.56318635  1
  Pt  Pt1321  1  0.43681365  0.53026024  0.46840682  1
  Pt  Pt1322  1  0.46840682  0.53026024  0.43681365  1
  Pt  Pt1323  1  0.53159317  0.40921928  0.50000000  1
  Pt  Pt1324  1  0.50000000  0.40921928  0.53159317  1
  Pt  Pt1325  1  0.50000000  0.40921928  0.46840682  1
  Pt  Pt1326  1  0.46840682  0.40921928  0.50000000  1
  Pt  Pt1327  1  0.53159317  0.59078073  0.50000000  1
  Pt  Pt1328  1  0.50000000  0.59078073  0.53159317  1
  Pt  Pt1329  1  0.50000000  0.59078073  0.46840682  1
  Pt  Pt1330  1  0.46840682  0.59078073  0.50000000  1
  Pt  Pt1331  1  0.59477952  0.46973976  0.50000000  1
  Pt  Pt1332  1  0.50000000  0.46973976  0.59477952  1
  Pt  Pt1333  1  0.59477952  0.53026024  0.50000000  1
  Pt  Pt1334  1  0.50000000  0.53026024  0.59477952  1
  Pt  Pt1335  1  0.50000000  0.46973976  0.40522047  1
  Pt  Pt1336  1  0.40522047  0.46973976  0.50000000  1
  Pt  Pt1337  1  0.50000000  0.53026024  0.40522047  1
  Pt  Pt1338  1  0.40522047  0.53026024  0.50000000  1
  Pt  Pt1339  1  0.53159317  0.40921928  0.56318635  1
  Pt  Pt1340  1  0.56318635  0.40921928  0.53159317  1
  Pt  Pt1341  1  0.53159317  0.40921928  0.43681365  1
  Pt  Pt1342  1  0.43681365  0.40921928  0.53159317  1
  Pt  Pt1343  1  0.56318635  0.40921928  0.46840682  1
  Pt  Pt1344  1  0.46840682  0.40921928  0.56318635  1
  Pt  Pt1345  1  0.46840682  0.40921928  0.43681365  1
  Pt  Pt1346  1  0.43681365  0.40921928  0.46840682  1
  Pt  Pt1347  1  0.56318635  0.59078073  0.53159317  1
  Pt  Pt1348  1  0.53159317  0.59078073  0.56318635  1
  Pt  Pt1349  1  0.53159317  0.59078073  0.43681365  1
  Pt  Pt1350  1  0.43681365  0.59078073  0.53159317  1
  Pt  Pt1351  1  0.56318635  0.59078073  0.46840682  1
  Pt  Pt1352  1  0.46840682  0.59078073  0.56318635  1
  Pt  Pt1353  1  0.46840682  0.59078073  0.43681365  1
  Pt  Pt1354  1  0.43681365  0.59078073  0.46840682  1
  Pt  Pt1355  1  0.59477952  0.46973976  0.56318635  1
  Pt  Pt1356  1  0.59477952  0.46973976  0.43681365  1
  Pt  Pt1357  1  0.56318635  0.46973976  0.59477952  1
  Pt  Pt1358  1  0.43681365  0.46973976  0.59477952  1
  Pt  Pt1359  1  0.59477952  0.53026024  0.56318635  1
  Pt  Pt1360  1  0.59477952  0.53026024  0.43681365  1
  Pt  Pt1361  1  0.56318635  0.53026024  0.59477952  1
  Pt  Pt1362  1  0.43681365  0.53026024  0.59477952  1
  Pt  Pt1363  1  0.56318635  0.46973976  0.40522047  1
  Pt  Pt1364  1  0.40522047  0.46973976  0.56318635  1
  Pt  Pt1365  1  0.43681365  0.46973976  0.40522047  1
  Pt  Pt1366  1  0.40522047  0.46973976  0.43681365  1
  Pt  Pt1367  1  0.40522047  0.53026024  0.56318635  1
  Pt  Pt1368  1  0.56318635  0.53026024  0.40522047  1
  Pt  Pt1369  1  0.40522047  0.53026024  0.43681365  1
  Pt  Pt1370  1  0.43681365  0.53026024  0.40522047  1
  Pt  Pt1371  1  0.59477952  0.40921928  0.50000000  1
  Pt  Pt1372  1  0.50000000  0.40921928  0.59477952  1
  Pt  Pt1373  1  0.59477952  0.59078073  0.50000000  1
  Pt  Pt1374  1  0.50000000  0.59078073  0.59477952  1
  Pt  Pt1375  1  0.50000000  0.40921928  0.40522047  1
  Pt  Pt1376  1  0.40522047  0.40921928  0.50000000  1
  Pt  Pt1377  1  0.50000000  0.59078073  0.40522047  1
  Pt  Pt1378  1  0.40522047  0.59078073  0.50000000  1
  Pt  Pt1379  1  0.53159317  0.46973976  0.62637270  1
  Pt  Pt1380  1  0.62637270  0.46973976  0.53159317  1
  Pt  Pt1381  1  0.53159317  0.46973976  0.37362730  1
  Pt  Pt1382  1  0.37362730  0.46973976  0.53159317  1
  Pt  Pt1383  1  0.53159317  0.53026024  0.62637270  1
  Pt  Pt1384  1  0.62637270  0.53026024  0.53159317  1
  Pt  Pt1385  1  0.53159317  0.53026024  0.37362730  1
  Pt  Pt1386  1  0.37362730  0.53026024  0.53159317  1
  Pt  Pt1387  1  0.46840682  0.46973976  0.62637270  1
  Pt  Pt1388  1  0.62637270  0.46973976  0.46840682  1
  Pt  Pt1389  1  0.46840682  0.46973976  0.37362730  1
  Pt  Pt1390  1  0.37362730  0.46973976  0.46840682  1
  Pt  Pt1391  1  0.62637270  0.53026024  0.46840682  1
  Pt  Pt1392  1  0.46840682  0.53026024  0.62637270  1
  Pt  Pt1393  1  0.37362730  0.53026024  0.46840682  1
  Pt  Pt1394  1  0.46840682  0.53026024  0.37362730  1
  Pt  Pt1395  1  0.59477952  0.40921928  0.43681365  1
  Pt  Pt1396  1  0.59477952  0.40921928  0.56318635  1
  Pt  Pt1397  1  0.56318635  0.40921928  0.59477952  1
  Pt  Pt1398  1  0.43681365  0.40921928  0.59477952  1
  Pt  Pt1399  1  0.59477952  0.59078073  0.56318635  1
  Pt  Pt1400  1  0.59477952  0.59078073  0.43681365  1
  Pt  Pt1401  1  0.56318635  0.59078073  0.59477952  1
  Pt  Pt1402  1  0.43681365  0.59078073  0.59477952  1
  Pt  Pt1403  1  0.56318635  0.40921928  0.40522047  1
  Pt  Pt1404  1  0.40522047  0.40921928  0.56318635  1
  Pt  Pt1405  1  0.40522047  0.40921928  0.43681365  1
  Pt  Pt1406  1  0.43681365  0.40921928  0.40522047  1
  Pt  Pt1407  1  0.56318635  0.59078073  0.40522047  1
  Pt  Pt1408  1  0.40522047  0.59078073  0.56318635  1
  Pt  Pt1409  1  0.40522047  0.59078073  0.43681365  1
  Pt  Pt1410  1  0.43681365  0.59078073  0.40522047  1
  Pt  Pt1411  1  0.50000000  0.34869879  0.53159317  1
  Pt  Pt1412  1  0.53159317  0.34869879  0.50000000  1
  Pt  Pt1413  1  0.50000000  0.34869879  0.46840682  1
  Pt  Pt1414  1  0.46840682  0.34869879  0.50000000  1
  Pt  Pt1415  1  0.53159317  0.65130121  0.50000000  1
  Pt  Pt1416  1  0.50000000  0.65130121  0.53159317  1
  Pt  Pt1417  1  0.50000000  0.65130121  0.46840682  1
  Pt  Pt1418  1  0.46840682  0.65130121  0.50000000  1
  Pt  Pt1419  1  0.53159317  0.40921928  0.62637270  1
  Pt  Pt1420  1  0.62637270  0.40921928  0.53159317  1
  Pt  Pt1421  1  0.53159317  0.40921928  0.37362730  1
  Pt  Pt1422  1  0.37362730  0.40921928  0.53159317  1
  Pt  Pt1423  1  0.62637270  0.40921928  0.46840682  1
  Pt  Pt1424  1  0.46840682  0.40921928  0.62637270  1
  Pt  Pt1425  1  0.46840682  0.40921928  0.37362730  1
  Pt  Pt1426  1  0.37362730  0.40921928  0.46840682  1
  Pt  Pt1427  1  0.62637270  0.59078073  0.53159317  1
  Pt  Pt1428  1  0.53159317  0.59078073  0.62637270  1
  Pt  Pt1429  1  0.53159317  0.59078073  0.37362730  1
  Pt  Pt1430  1  0.37362730  0.59078073  0.53159317  1
  Pt  Pt1431  1  0.62637270  0.59078073  0.46840682  1
  Pt  Pt1432  1  0.46840682  0.59078073  0.62637270  1
  Pt  Pt1433  1  0.46840682  0.59078073  0.37362730  1
  Pt  Pt1434  1  0.37362730  0.59078073  0.46840682  1
  Pt  Pt1435  1  0.65796587  0.46973976  0.50000000  1
  Pt  Pt1436  1  0.50000000  0.46973976  0.65796587  1
  Pt  Pt1437  1  0.50000000  0.53026024  0.65796587  1
  Pt  Pt1438  1  0.65796587  0.53026024  0.50000000  1
  Pt  Pt1439  1  0.59477952  0.46973976  0.62637270  1
  Pt  Pt1440  1  0.59477952  0.46973976  0.37362730  1
  Pt  Pt1441  1  0.62637270  0.46973976  0.59477952  1
  Pt  Pt1442  1  0.37362730  0.46973976  0.59477952  1
  Pt  Pt1443  1  0.59477952  0.53026024  0.62637270  1
  Pt  Pt1444  1  0.62637270  0.53026024  0.59477952  1
  Pt  Pt1445  1  0.59477952  0.53026024  0.37362730  1
  Pt  Pt1446  1  0.37362730  0.53026024  0.59477952  1
  Pt  Pt1447  1  0.62637270  0.46973976  0.40522047  1
  Pt  Pt1448  1  0.40522047  0.46973976  0.62637270  1
  Pt  Pt1449  1  0.40522047  0.46973976  0.37362730  1
  Pt  Pt1450  1  0.37362730  0.46973976  0.40522047  1
  Pt  Pt1451  1  0.62637270  0.53026024  0.40522047  1
  Pt  Pt1452  1  0.40522047  0.53026024  0.62637270  1
  Pt  Pt1453  1  0.40522047  0.53026024  0.37362730  1
  Pt  Pt1454  1  0.37362730  0.53026024  0.40522047  1
  Pt  Pt1455  1  0.50000000  0.46973976  0.34203412  1
  Pt  Pt1456  1  0.34203412  0.46973976  0.50000000  1
  Pt  Pt1457  1  0.50000000  0.53026024  0.34203412  1
  Pt  Pt1458  1  0.34203412  0.53026024  0.50000000  1
  Pt  Pt1459  1  0.53159317  0.34869879  0.56318635  1
  Pt  Pt1460  1  0.56318635  0.34869879  0.53159317  1
  Pt  Pt1461  1  0.53159317  0.34869879  0.43681365  1
  Pt  Pt1462  1  0.43681365  0.34869879  0.53159317  1
  Pt  Pt1463  1  0.46840682  0.34869879  0.56318635  1
  Pt  Pt1464  1  0.56318635  0.34869879  0.46840682  1
  Pt  Pt1465  1  0.43681365  0.34869879  0.46840682  1
  Pt  Pt1466  1  0.46840682  0.34869879  0.43681365  1
  Pt  Pt1467  1  0.56318635  0.65130121  0.53159317  1
  Pt  Pt1468  1  0.53159317  0.65130121  0.56318635  1
  Pt  Pt1469  1  0.53159317  0.65130121  0.43681365  1
  Pt  Pt1470  1  0.43681365  0.65130121  0.53159317  1
  Pt  Pt1471  1  0.56318635  0.65130121  0.46840682  1
  Pt  Pt1472  1  0.46840682  0.65130121  0.56318635  1
  Pt  Pt1473  1  0.43681365  0.65130121  0.46840682  1
  Pt  Pt1474  1  0.46840682  0.65130121  0.43681365  1
  Pt  Pt1475  1  0.56318635  0.46973976  0.65796587  1
  Pt  Pt1476  1  0.43681365  0.46973976  0.65796587  1
  Pt  Pt1477  1  0.65796587  0.46973976  0.56318635  1
  Pt  Pt1478  1  0.65796587  0.46973976  0.43681365  1
  Pt  Pt1479  1  0.43681365  0.53026024  0.65796587  1
  Pt  Pt1480  1  0.65796587  0.53026024  0.56318635  1
  Pt  Pt1481  1  0.56318635  0.53026024  0.65796587  1
  Pt  Pt1482  1  0.65796587  0.53026024  0.43681365  1
  Pt  Pt1483  1  0.56318635  0.46973976  0.34203412  1
  Pt  Pt1484  1  0.43681365  0.46973976  0.34203412  1
  Pt  Pt1485  1  0.34203412  0.46973976  0.56318635  1
  Pt  Pt1486  1  0.34203412  0.46973976  0.43681365  1
  Pt  Pt1487  1  0.56318635  0.53026024  0.34203412  1
  Pt  Pt1488  1  0.43681365  0.53026024  0.34203412  1
  Pt  Pt1489  1  0.34203412  0.53026024  0.56318635  1
  Pt  Pt1490  1  0.34203412  0.53026024  0.43681365  1
  Pt  Pt1491  1  0.59477952  0.34869879  0.50000000  1
  Pt  Pt1492  1  0.50000000  0.34869879  0.59477952  1
  Pt  Pt1493  1  0.50000000  0.34869879  0.40522047  1
  Pt  Pt1494  1  0.40522047  0.34869879  0.50000000  1
  Pt  Pt1495  1  0.59477952  0.65130121  0.50000000  1
  Pt  Pt1496  1  0.50000000  0.65130121  0.59477952  1
  Pt  Pt1497  1  0.50000000  0.65130121  0.40522047  1
  Pt  Pt1498  1  0.40522047  0.65130121  0.50000000  1
  Pt  Pt1499  1  0.65796587  0.40921928  0.50000000  1
  Pt  Pt1500  1  0.50000000  0.40921928  0.65796587  1
  Pt  Pt1501  1  0.59477952  0.40921928  0.62637270  1
  Pt  Pt1502  1  0.62637270  0.40921928  0.59477952  1
  Pt  Pt1503  1  0.59477952  0.40921928  0.37362730  1
  Pt  Pt1504  1  0.37362730  0.40921928  0.59477952  1
  Pt  Pt1505  1  0.50000000  0.59078073  0.65796587  1
  Pt  Pt1506  1  0.65796587  0.59078073  0.50000000  1
  Pt  Pt1507  1  0.59477952  0.59078073  0.62637270  1
  Pt  Pt1508  1  0.62637270  0.59078073  0.59477952  1
  Pt  Pt1509  1  0.59477952  0.59078073  0.37362730  1
  Pt  Pt1510  1  0.37362730  0.59078073  0.59477952  1
  Pt  Pt1511  1  0.40522047  0.40921928  0.62637270  1
  Pt  Pt1512  1  0.62637270  0.40921928  0.40522047  1
  Pt  Pt1513  1  0.37362730  0.40921928  0.40522047  1
  Pt  Pt1514  1  0.40522047  0.40921928  0.37362730  1
  Pt  Pt1515  1  0.50000000  0.40921928  0.34203412  1
  Pt  Pt1516  1  0.34203412  0.40921928  0.50000000  1
  Pt  Pt1517  1  0.62637270  0.59078073  0.40522047  1
  Pt  Pt1518  1  0.37362730  0.59078073  0.40522047  1
  Pt  Pt1519  1  0.40522047  0.59078073  0.62637270  1
  Pt  Pt1520  1  0.40522047  0.59078073  0.37362730  1
  Pt  Pt1521  1  0.50000000  0.59078073  0.34203412  1
  Pt  Pt1522  1  0.34203412  0.59078073  0.50000000  1
  Pt  Pt1523  1  0.59477952  0.34869879  0.43681365  1
  Pt  Pt1524  1  0.56318635  0.34869879  0.59477952  1
  Pt  Pt1525  1  0.59477952  0.34869879  0.56318635  1
  Pt  Pt1526  1  0.43681365  0.34869879  0.59477952  1
  Pt  Pt1527  1  0.56318635  0.34869879  0.40522047  1
  Pt  Pt1528  1  0.40522047  0.34869879  0.43681365  1
  Pt  Pt1529  1  0.43681365  0.34869879  0.40522047  1
  Pt  Pt1530  1  0.40522047  0.34869879  0.56318635  1
  Pt  Pt1531  1  0.59477952  0.65130121  0.43681365  1
  Pt  Pt1532  1  0.59477952  0.65130121  0.56318635  1
  Pt  Pt1533  1  0.56318635  0.65130121  0.59477952  1
  Pt  Pt1534  1  0.43681365  0.65130121  0.59477952  1
  Pt  Pt1535  1  0.56318635  0.65130121  0.40522047  1
  Pt  Pt1536  1  0.40522047  0.65130121  0.43681365  1
  Pt  Pt1537  1  0.40522047  0.65130121  0.56318635  1
  Pt  Pt1538  1  0.43681365  0.65130121  0.40522047  1
  Pt  Pt1539  1  0.56318635  0.40921928  0.65796587  1
  Pt  Pt1540  1  0.65796587  0.40921928  0.43681365  1
  Pt  Pt1541  1  0.43681365  0.40921928  0.65796587  1
  Pt  Pt1542  1  0.65796587  0.40921928  0.56318635  1
  Pt  Pt1543  1  0.56318635  0.59078073  0.65796587  1
  Pt  Pt1544  1  0.65796587  0.59078073  0.43681365  1
  Pt  Pt1545  1  0.65796587  0.59078073  0.56318635  1
  Pt  Pt1546  1  0.43681365  0.59078073  0.65796587  1
  Pt  Pt1547  1  0.56318635  0.40921928  0.34203412  1
  Pt  Pt1548  1  0.43681365  0.40921928  0.34203412  1
  Pt  Pt1549  1  0.34203412  0.40921928  0.56318635  1
  Pt  Pt1550  1  0.34203412  0.40921928  0.43681365  1
  Pt  Pt1551  1  0.56318635  0.59078073  0.34203412  1
  Pt  Pt1552  1  0.43681365  0.59078073  0.34203412  1
  Pt  Pt1553  1  0.34203412  0.59078073  0.43681365  1
  Pt  Pt1554  1  0.34203412  0.59078073  0.56318635  1
  Pt  Pt1555  1  0.53159317  0.46973976  0.68955905  1
  Pt  Pt1556  1  0.68955905  0.46973976  0.53159317  1
  Pt  Pt1557  1  0.53159317  0.46973976  0.31044095  1
  Pt  Pt1558  1  0.31044095  0.46973976  0.53159317  1
  Pt  Pt1559  1  0.68955905  0.53026024  0.53159317  1
  Pt  Pt1560  1  0.53159317  0.53026024  0.68955905  1
  Pt  Pt1561  1  0.53159317  0.53026024  0.31044095  1
  Pt  Pt1562  1  0.31044095  0.53026024  0.53159317  1
  Pt  Pt1563  1  0.46840682  0.46973976  0.68955905  1
  Pt  Pt1564  1  0.68955905  0.46973976  0.46840682  1
  Pt  Pt1565  1  0.46840682  0.46973976  0.31044095  1
  Pt  Pt1566  1  0.31044095  0.46973976  0.46840682  1
  Pt  Pt1567  1  0.68955905  0.53026024  0.46840682  1
  Pt  Pt1568  1  0.46840682  0.53026024  0.68955905  1
  Pt  Pt1569  1  0.46840682  0.53026024  0.31044095  1
  Pt  Pt1570  1  0.31044095  0.53026024  0.46840682  1
  Pt  Pt1571  1  0.53159317  0.34869879  0.62637270  1
  Pt  Pt1572  1  0.62637270  0.34869879  0.53159317  1
  Pt  Pt1573  1  0.53159317  0.34869879  0.37362730  1
  Pt  Pt1574  1  0.37362730  0.34869879  0.53159317  1
  Pt  Pt1575  1  0.46840682  0.34869879  0.62637270  1
  Pt  Pt1576  1  0.62637270  0.34869879  0.46840682  1
  Pt  Pt1577  1  0.46840682  0.34869879  0.37362730  1
  Pt  Pt1578  1  0.37362730  0.34869879  0.46840682  1
  Pt  Pt1579  1  0.62637270  0.65130121  0.53159317  1
  Pt  Pt1580  1  0.53159317  0.65130121  0.62637270  1
  Pt  Pt1581  1  0.53159317  0.65130121  0.37362730  1
  Pt  Pt1582  1  0.37362730  0.65130121  0.53159317  1
  Pt  Pt1583  1  0.62637270  0.65130121  0.46840682  1
  Pt  Pt1584  1  0.46840682  0.65130121  0.62637270  1
  Pt  Pt1585  1  0.46840682  0.65130121  0.37362730  1
  Pt  Pt1586  1  0.37362730  0.65130121  0.46840682  1
  Pt  Pt1587  1  0.62637270  0.46973976  0.65796587  1
  Pt  Pt1588  1  0.65796587  0.46973976  0.62637270  1
  Pt  Pt1589  1  0.65796587  0.46973976  0.37362730  1
  Pt  Pt1590  1  0.37362730  0.46973976  0.65796587  1
  Pt  Pt1591  1  0.65796587  0.53026024  0.62637270  1
  Pt  Pt1592  1  0.62637270  0.53026024  0.65796587  1
  Pt  Pt1593  1  0.37362730  0.53026024  0.65796587  1
  Pt  Pt1594  1  0.65796587  0.53026024  0.37362730  1
  Pt  Pt1595  1  0.62637270  0.46973976  0.34203412  1
  Pt  Pt1596  1  0.37362730  0.46973976  0.34203412  1
  Pt  Pt1597  1  0.34203412  0.46973976  0.62637270  1
  Pt  Pt1598  1  0.34203412  0.46973976  0.37362730  1
  Pt  Pt1599  1  0.62637270  0.53026024  0.34203412  1
  Pt  Pt1600  1  0.34203412  0.53026024  0.62637270  1
  Pt  Pt1601  1  0.37362730  0.53026024  0.34203412  1
  Pt  Pt1602  1  0.34203412  0.53026024  0.37362730  1
  Pt  Pt1603  1  0.68955905  0.40921928  0.53159317  1
  Pt  Pt1604  1  0.53159317  0.40921928  0.68955905  1
  Pt  Pt1605  1  0.53159317  0.40921928  0.31044095  1
  Pt  Pt1606  1  0.31044095  0.40921928  0.53159317  1
  Pt  Pt1607  1  0.68955905  0.40921928  0.46840682  1
  Pt  Pt1608  1  0.46840682  0.40921928  0.68955905  1
  Pt  Pt1609  1  0.46840682  0.40921928  0.31044095  1
  Pt  Pt1610  1  0.31044095  0.40921928  0.46840682  1
  Pt  Pt1611  1  0.53159317  0.59078073  0.68955905  1
  Pt  Pt1612  1  0.68955905  0.59078073  0.53159317  1
  Pt  Pt1613  1  0.53159317  0.59078073  0.31044095  1
  Pt  Pt1614  1  0.31044095  0.59078073  0.53159317  1
  Pt  Pt1615  1  0.68955905  0.59078073  0.46840682  1
  Pt  Pt1616  1  0.46840682  0.59078073  0.68955905  1
  Pt  Pt1617  1  0.46840682  0.59078073  0.31044095  1
  Pt  Pt1618  1  0.31044095  0.59078073  0.46840682  1
  Pt  Pt1619  1  0.59477952  0.46973976  0.68955905  1
  Pt  Pt1620  1  0.68955905  0.46973976  0.59477952  1
  Pt  Pt1621  1  0.59477952  0.46973976  0.31044095  1
  Pt  Pt1622  1  0.31044095  0.46973976  0.59477952  1
  Pt  Pt1623  1  0.59477952  0.53026024  0.68955905  1
  Pt  Pt1624  1  0.68955905  0.53026024  0.59477952  1
  Pt  Pt1625  1  0.59477952  0.53026024  0.31044095  1
  Pt  Pt1626  1  0.31044095  0.53026024  0.59477952  1
  Pt  Pt1627  1  0.68955905  0.46973976  0.40522047  1
  Pt  Pt1628  1  0.40522047  0.46973976  0.68955905  1
  Pt  Pt1629  1  0.40522047  0.46973976  0.31044095  1
  Pt  Pt1630  1  0.31044095  0.46973976  0.40522047  1
  Pt  Pt1631  1  0.68955905  0.53026024  0.40522047  1
  Pt  Pt1632  1  0.40522047  0.53026024  0.68955905  1
  Pt  Pt1633  1  0.40522047  0.53026024  0.31044095  1
  Pt  Pt1634  1  0.31044095  0.53026024  0.40522047  1
  Pt  Pt1635  1  0.50000000  0.28817831  0.53159317  1
  Pt  Pt1636  1  0.53159317  0.28817831  0.50000000  1
  Pt  Pt1637  1  0.50000000  0.28817831  0.46840682  1
  Pt  Pt1638  1  0.46840682  0.28817831  0.50000000  1
  Pt  Pt1639  1  0.53159317  0.71182169  0.50000000  1
  Pt  Pt1640  1  0.50000000  0.71182169  0.53159317  1
  Pt  Pt1641  1  0.50000000  0.71182169  0.46840682  1
  Pt  Pt1642  1  0.46840682  0.71182169  0.50000000  1
  Pt  Pt1643  1  0.65796587  0.34869879  0.50000000  1
  Pt  Pt1644  1  0.50000000  0.34869879  0.65796587  1
  Pt  Pt1645  1  0.59477952  0.34869879  0.62637270  1
  Pt  Pt1646  1  0.62637270  0.34869879  0.59477952  1
  Pt  Pt1647  1  0.59477952  0.34869879  0.37362730  1
  Pt  Pt1648  1  0.37362730  0.34869879  0.59477952  1
  Pt  Pt1649  1  0.62637270  0.34869879  0.40522047  1
  Pt  Pt1650  1  0.40522047  0.34869879  0.62637270  1
  Pt  Pt1651  1  0.37362730  0.34869879  0.40522047  1
  Pt  Pt1652  1  0.40522047  0.34869879  0.37362730  1
  Pt  Pt1653  1  0.50000000  0.65130121  0.65796587  1
  Pt  Pt1654  1  0.65796587  0.65130121  0.50000000  1
  Pt  Pt1655  1  0.50000000  0.34869879  0.34203412  1
  Pt  Pt1656  1  0.34203412  0.34869879  0.50000000  1
  Pt  Pt1657  1  0.59477952  0.65130121  0.62637270  1
  Pt  Pt1658  1  0.62637270  0.65130121  0.59477952  1
  Pt  Pt1659  1  0.59477952  0.65130121  0.37362730  1
  Pt  Pt1660  1  0.37362730  0.65130121  0.59477952  1
  Pt  Pt1661  1  0.62637270  0.65130121  0.40522047  1
  Pt  Pt1662  1  0.40522047  0.65130121  0.62637270  1
  Pt  Pt1663  1  0.37362730  0.65130121  0.40522047  1
  Pt  Pt1664  1  0.40522047  0.65130121  0.37362730  1
  Pt  Pt1665  1  0.50000000  0.65130121  0.34203412  1
  Pt  Pt1666  1  0.34203412  0.65130121  0.50000000  1
  Pt  Pt1667  1  0.65796587  0.40921928  0.62637270  1
  Pt  Pt1668  1  0.62637270  0.40921928  0.65796587  1
  Pt  Pt1669  1  0.65796587  0.40921928  0.37362730  1
  Pt  Pt1670  1  0.37362730  0.40921928  0.65796587  1
  Pt  Pt1671  1  0.62637270  0.59078073  0.65796587  1
  Pt  Pt1672  1  0.65796587  0.59078073  0.62637270  1
  Pt  Pt1673  1  0.65796587  0.59078073  0.37362730  1
  Pt  Pt1674  1  0.37362730  0.59078073  0.65796587  1
  Pt  Pt1675  1  0.62637270  0.40921928  0.34203412  1
  Pt  Pt1676  1  0.37362730  0.40921928  0.34203412  1
  Pt  Pt1677  1  0.34203412  0.40921928  0.62637270  1
  Pt  Pt1678  1  0.34203412  0.40921928  0.37362730  1
  Pt  Pt1679  1  0.62637270  0.59078073  0.34203412  1
  Pt  Pt1680  1  0.34203412  0.59078073  0.62637270  1
  Pt  Pt1681  1  0.37362730  0.59078073  0.34203412  1
  Pt  Pt1682  1  0.34203412  0.59078073  0.37362730  1
  Pt  Pt1683  1  0.72115222  0.46973976  0.50000000  1
  Pt  Pt1684  1  0.50000000  0.46973976  0.72115222  1
  Pt  Pt1685  1  0.72115222  0.53026024  0.50000000  1
  Pt  Pt1686  1  0.50000000  0.53026024  0.72115222  1
  Pt  Pt1687  1  0.50000000  0.46973976  0.27884777  1
  Pt  Pt1688  1  0.27884777  0.46973976  0.50000000  1
  Pt  Pt1689  1  0.50000000  0.53026024  0.27884777  1
  Pt  Pt1690  1  0.27884777  0.53026024  0.50000000  1
  Pt  Pt1691  1  0.53159317  0.28817831  0.56318635  1
  Pt  Pt1692  1  0.56318635  0.28817831  0.53159317  1
  Pt  Pt1693  1  0.53159317  0.28817831  0.43681365  1
  Pt  Pt1694  1  0.43681365  0.28817831  0.53159317  1
  Pt  Pt1695  1  0.46840682  0.28817831  0.56318635  1
  Pt  Pt1696  1  0.56318635  0.28817831  0.46840682  1
  Pt  Pt1697  1  0.46840682  0.28817831  0.43681365  1
  Pt  Pt1698  1  0.43681365  0.28817831  0.46840682  1
  Pt  Pt1699  1  0.53159317  0.71182169  0.43681365  1
  Pt  Pt1700  1  0.56318635  0.71182169  0.53159317  1
  Pt  Pt1701  1  0.53159317  0.71182169  0.56318635  1
  Pt  Pt1702  1  0.43681365  0.71182169  0.53159317  1
  Pt  Pt1703  1  0.56318635  0.71182169  0.46840682  1
  Pt  Pt1704  1  0.46840682  0.71182169  0.56318635  1
  Pt  Pt1705  1  0.46840682  0.71182169  0.43681365  1
  Pt  Pt1706  1  0.43681365  0.71182169  0.46840682  1
  Pt  Pt1707  1  0.56318635  0.34869879  0.65796587  1
  Pt  Pt1708  1  0.43681365  0.34869879  0.65796587  1
  Pt  Pt1709  1  0.65796587  0.34869879  0.56318635  1
  Pt  Pt1710  1  0.65796587  0.34869879  0.43681365  1
  Pt  Pt1711  1  0.56318635  0.65130121  0.65796587  1
  Pt  Pt1712  1  0.65796587  0.65130121  0.43681365  1
  Pt  Pt1713  1  0.65796587  0.65130121  0.56318635  1
  Pt  Pt1714  1  0.43681365  0.65130121  0.65796587  1
  Pt  Pt1715  1  0.56318635  0.34869879  0.34203412  1
  Pt  Pt1716  1  0.43681365  0.34869879  0.34203412  1
  Pt  Pt1717  1  0.34203412  0.34869879  0.56318635  1
  Pt  Pt1718  1  0.34203412  0.34869879  0.43681365  1
  Pt  Pt1719  1  0.56318635  0.65130121  0.34203412  1
  Pt  Pt1720  1  0.43681365  0.65130121  0.34203412  1
  Pt  Pt1721  1  0.34203412  0.65130121  0.56318635  1
  Pt  Pt1722  1  0.34203412  0.65130121  0.43681365  1
  Pt  Pt1723  1  0.59477952  0.40921928  0.68955905  1
  Pt  Pt1724  1  0.68955905  0.40921928  0.59477952  1
  Pt  Pt1725  1  0.59477952  0.40921928  0.31044095  1
  Pt  Pt1726  1  0.31044095  0.40921928  0.59477952  1
  Pt  Pt1727  1  0.59477952  0.59078073  0.68955905  1
  Pt  Pt1728  1  0.59477952  0.59078073  0.31044095  1
  Pt  Pt1729  1  0.68955905  0.59078073  0.59477952  1
  Pt  Pt1730  1  0.31044095  0.59078073  0.59477952  1
  Pt  Pt1731  1  0.68955905  0.40921928  0.40522047  1
  Pt  Pt1732  1  0.40522047  0.40921928  0.68955905  1
  Pt  Pt1733  1  0.40522047  0.40921928  0.31044095  1
  Pt  Pt1734  1  0.31044095  0.40921928  0.40522047  1
  Pt  Pt1735  1  0.68955905  0.59078073  0.40522047  1
  Pt  Pt1736  1  0.40522047  0.59078073  0.68955905  1
  Pt  Pt1737  1  0.31044095  0.59078073  0.40522047  1
  Pt  Pt1738  1  0.40522047  0.59078073  0.31044095  1
  Pt  Pt1739  1  0.72115222  0.46973976  0.43681365  1
  Pt  Pt1740  1  0.72115222  0.46973976  0.56318635  1
  Pt  Pt1741  1  0.56318635  0.46973976  0.72115222  1
  Pt  Pt1742  1  0.43681365  0.46973976  0.72115222  1
  Pt  Pt1743  1  0.72115222  0.53026024  0.43681365  1
  Pt  Pt1744  1  0.72115222  0.53026024  0.56318635  1
  Pt  Pt1745  1  0.56318635  0.53026024  0.72115222  1
  Pt  Pt1746  1  0.43681365  0.53026024  0.72115222  1
  Pt  Pt1747  1  0.56318635  0.46973976  0.27884777  1
  Pt  Pt1748  1  0.43681365  0.46973976  0.27884777  1
  Pt  Pt1749  1  0.27884777  0.46973976  0.56318635  1
  Pt  Pt1750  1  0.27884777  0.46973976  0.43681365  1
  Pt  Pt1751  1  0.43681365  0.53026024  0.27884777  1
  Pt  Pt1752  1  0.56318635  0.53026024  0.27884777  1
  Pt  Pt1753  1  0.27884777  0.53026024  0.43681365  1
  Pt  Pt1754  1  0.27884777  0.53026024  0.56318635  1
  Pt  Pt1755  1  0.59477952  0.28817831  0.50000000  1
  Pt  Pt1756  1  0.50000000  0.28817831  0.59477952  1
  Pt  Pt1757  1  0.50000000  0.28817831  0.40522047  1
  Pt  Pt1758  1  0.40522047  0.28817831  0.50000000  1
  Pt  Pt1759  1  0.59477952  0.71182169  0.50000000  1
  Pt  Pt1760  1  0.50000000  0.71182169  0.59477952  1
  Pt  Pt1761  1  0.50000000  0.71182169  0.40522047  1
  Pt  Pt1762  1  0.40522047  0.71182169  0.50000000  1
  Pt  Pt1763  1  0.72115222  0.40921928  0.50000000  1
  Pt  Pt1764  1  0.50000000  0.40921928  0.72115222  1
  Pt  Pt1765  1  0.72115222  0.59078073  0.50000000  1
  Pt  Pt1766  1  0.50000000  0.59078073  0.72115222  1
  Pt  Pt1767  1  0.50000000  0.40921928  0.27884777  1
  Pt  Pt1768  1  0.27884777  0.40921928  0.50000000  1
  Pt  Pt1769  1  0.50000000  0.59078073  0.27884777  1
  Pt  Pt1770  1  0.27884777  0.59078073  0.50000000  1
  Pt  Pt1771  1  0.59477952  0.28817831  0.56318635  1
  Pt  Pt1772  1  0.59477952  0.28817831  0.43681365  1
  Pt  Pt1773  1  0.56318635  0.28817831  0.59477952  1
  Pt  Pt1774  1  0.43681365  0.28817831  0.59477952  1
  Pt  Pt1775  1  0.56318635  0.28817831  0.40522047  1
  Pt  Pt1776  1  0.40522047  0.28817831  0.43681365  1
  Pt  Pt1777  1  0.43681365  0.28817831  0.40522047  1
  Pt  Pt1778  1  0.40522047  0.28817831  0.56318635  1
  Pt  Pt1779  1  0.59477952  0.71182169  0.43681365  1
  Pt  Pt1780  1  0.59477952  0.71182169  0.56318635  1
  Pt  Pt1781  1  0.56318635  0.71182169  0.59477952  1
  Pt  Pt1782  1  0.43681365  0.71182169  0.59477952  1
  Pt  Pt1783  1  0.56318635  0.71182169  0.40522047  1
  Pt  Pt1784  1  0.40522047  0.71182169  0.43681365  1
  Pt  Pt1785  1  0.43681365  0.71182169  0.40522047  1
  Pt  Pt1786  1  0.40522047  0.71182169  0.56318635  1
  Pt  Pt1787  1  0.53159317  0.34869879  0.68955905  1
  Pt  Pt1788  1  0.68955905  0.34869879  0.53159317  1
  Pt  Pt1789  1  0.53159317  0.34869879  0.31044095  1
  Pt  Pt1790  1  0.31044095  0.34869879  0.53159317  1
  Pt  Pt1791  1  0.46840682  0.34869879  0.68955905  1
  Pt  Pt1792  1  0.68955905  0.34869879  0.46840682  1
  Pt  Pt1793  1  0.46840682  0.34869879  0.31044095  1
  Pt  Pt1794  1  0.31044095  0.34869879  0.46840682  1
  Pt  Pt1795  1  0.53159317  0.65130121  0.68955905  1
  Pt  Pt1796  1  0.68955905  0.65130121  0.53159317  1
  Pt  Pt1797  1  0.53159317  0.65130121  0.31044095  1
  Pt  Pt1798  1  0.31044095  0.65130121  0.53159317  1
  Pt  Pt1799  1  0.46840682  0.65130121  0.68955905  1
  Pt  Pt1800  1  0.68955905  0.65130121  0.46840682  1
  Pt  Pt1801  1  0.46840682  0.65130121  0.31044095  1
  Pt  Pt1802  1  0.31044095  0.65130121  0.46840682  1
  Pt  Pt1803  1  0.72115222  0.40921928  0.56318635  1
  Pt  Pt1804  1  0.72115222  0.40921928  0.43681365  1
  Pt  Pt1805  1  0.56318635  0.40921928  0.72115222  1
  Pt  Pt1806  1  0.43681365  0.40921928  0.72115222  1
  Pt  Pt1807  1  0.72115222  0.59078073  0.43681365  1
  Pt  Pt1808  1  0.72115222  0.59078073  0.56318635  1
  Pt  Pt1809  1  0.56318635  0.59078073  0.72115222  1
  Pt  Pt1810  1  0.43681365  0.59078073  0.72115222  1
  Pt  Pt1811  1  0.56318635  0.40921928  0.27884777  1
  Pt  Pt1812  1  0.43681365  0.40921928  0.27884777  1
  Pt  Pt1813  1  0.27884777  0.40921928  0.43681365  1
  Pt  Pt1814  1  0.27884777  0.40921928  0.56318635  1
  Pt  Pt1815  1  0.56318635  0.59078073  0.27884777  1
  Pt  Pt1816  1  0.43681365  0.59078073  0.27884777  1
  Pt  Pt1817  1  0.27884777  0.59078073  0.43681365  1
  Pt  Pt1818  1  0.27884777  0.59078073  0.56318635  1
  Pt  Pt1819  1  0.65796587  0.46973976  0.68955905  1
  Pt  Pt1820  1  0.68955905  0.46973976  0.65796587  1
  Pt  Pt1821  1  0.65796587  0.46973976  0.31044095  1
  Pt  Pt1822  1  0.31044095  0.46973976  0.65796587  1
  Pt  Pt1823  1  0.65796587  0.53026024  0.68955905  1
  Pt  Pt1824  1  0.68955905  0.53026024  0.65796587  1
  Pt  Pt1825  1  0.65796587  0.53026024  0.31044095  1
  Pt  Pt1826  1  0.31044095  0.53026024  0.65796587  1
  Pt  Pt1827  1  0.68955905  0.46973976  0.34203412  1
  Pt  Pt1828  1  0.34203412  0.46973976  0.68955905  1
  Pt  Pt1829  1  0.31044095  0.46973976  0.34203412  1
  Pt  Pt1830  1  0.34203412  0.46973976  0.31044095  1
  Pt  Pt1831  1  0.68955905  0.53026024  0.34203412  1
  Pt  Pt1832  1  0.34203412  0.53026024  0.68955905  1
  Pt  Pt1833  1  0.34203412  0.53026024  0.31044095  1
  Pt  Pt1834  1  0.31044095  0.53026024  0.34203412  1
  Pt  Pt1835  1  0.62637270  0.28817831  0.53159317  1
  Pt  Pt1836  1  0.53159317  0.28817831  0.62637270  1
  Pt  Pt1837  1  0.53159317  0.28817831  0.37362730  1
  Pt  Pt1838  1  0.37362730  0.28817831  0.53159317  1
  Pt  Pt1839  1  0.46840682  0.28817831  0.62637270  1
  Pt  Pt1840  1  0.62637270  0.28817831  0.46840682  1
  Pt  Pt1841  1  0.46840682  0.28817831  0.37362730  1
  Pt  Pt1842  1  0.37362730  0.28817831  0.46840682  1
  Pt  Pt1843  1  0.62637270  0.71182169  0.53159317  1
  Pt  Pt1844  1  0.53159317  0.71182169  0.62637270  1
  Pt  Pt1845  1  0.53159317  0.71182169  0.37362730  1
  Pt  Pt1846  1  0.37362730  0.71182169  0.53159317  1
  Pt  Pt1847  1  0.62637270  0.71182169  0.46840682  1
  Pt  Pt1848  1  0.46840682  0.71182169  0.62637270  1
  Pt  Pt1849  1  0.46840682  0.71182169  0.37362730  1
  Pt  Pt1850  1  0.37362730  0.71182169  0.46840682  1
  Pt  Pt1851  1  0.65796587  0.34869879  0.62637270  1
  Pt  Pt1852  1  0.62637270  0.34869879  0.65796587  1
  Pt  Pt1853  1  0.65796587  0.34869879  0.37362730  1
  Pt  Pt1854  1  0.37362730  0.34869879  0.65796587  1
  Pt  Pt1855  1  0.62637270  0.65130121  0.65796587  1
  Pt  Pt1856  1  0.65796587  0.65130121  0.62637270  1
  Pt  Pt1857  1  0.65796587  0.65130121  0.37362730  1
  Pt  Pt1858  1  0.37362730  0.65130121  0.65796587  1
  Pt  Pt1859  1  0.62637270  0.34869879  0.34203412  1
  Pt  Pt1860  1  0.37362730  0.34869879  0.34203412  1
  Pt  Pt1861  1  0.34203412  0.34869879  0.62637270  1
  Pt  Pt1862  1  0.34203412  0.34869879  0.37362730  1
  Pt  Pt1863  1  0.62637270  0.65130121  0.34203412  1
  Pt  Pt1864  1  0.37362730  0.65130121  0.34203412  1
  Pt  Pt1865  1  0.34203412  0.65130121  0.62637270  1
  Pt  Pt1866  1  0.34203412  0.65130121  0.37362730  1
  Pt  Pt1867  1  0.72115222  0.46973976  0.62637270  1
  Pt  Pt1868  1  0.72115222  0.46973976  0.37362730  1
  Pt  Pt1869  1  0.62637270  0.46973976  0.72115222  1
  Pt  Pt1870  1  0.37362730  0.46973976  0.72115222  1
  Pt  Pt1871  1  0.72115222  0.53026024  0.62637270  1
  Pt  Pt1872  1  0.72115222  0.53026024  0.37362730  1
  Pt  Pt1873  1  0.62637270  0.53026024  0.72115222  1
  Pt  Pt1874  1  0.37362730  0.53026024  0.72115222  1
  Pt  Pt1875  1  0.75274540  0.46973976  0.53159317  1
  Pt  Pt1876  1  0.53159317  0.46973976  0.75274540  1
  Pt  Pt1877  1  0.53159317  0.46973976  0.24725460  1
  Pt  Pt1878  1  0.24725460  0.46973976  0.53159317  1
  Pt  Pt1879  1  0.75274540  0.53026024  0.53159317  1
  Pt  Pt1880  1  0.53159317  0.53026024  0.75274540  1
  Pt  Pt1881  1  0.53159317  0.53026024  0.24725460  1
  Pt  Pt1882  1  0.24725460  0.53026024  0.53159317  1
  Pt  Pt1883  1  0.75274540  0.46973976  0.46840682  1
  Pt  Pt1884  1  0.46840682  0.46973976  0.75274540  1
  Pt  Pt1885  1  0.46840682  0.46973976  0.24725460  1
  Pt  Pt1886  1  0.24725460  0.46973976  0.46840682  1
  Pt  Pt1887  1  0.75274540  0.53026024  0.46840682  1
  Pt  Pt1888  1  0.46840682  0.53026024  0.75274540  1
  Pt  Pt1889  1  0.46840682  0.53026024  0.24725460  1
  Pt  Pt1890  1  0.24725460  0.53026024  0.46840682  1
  Pt  Pt1891  1  0.62637270  0.46973976  0.27884777  1
  Pt  Pt1892  1  0.27884777  0.46973976  0.62637270  1
  Pt  Pt1893  1  0.37362730  0.46973976  0.27884777  1
  Pt  Pt1894  1  0.27884777  0.46973976  0.37362730  1
  Pt  Pt1895  1  0.62637270  0.53026024  0.27884777  1
  Pt  Pt1896  1  0.37362730  0.53026024  0.27884777  1
  Pt  Pt1897  1  0.27884777  0.53026024  0.62637270  1
  Pt  Pt1898  1  0.27884777  0.53026024  0.37362730  1
  Pt  Pt1899  1  0.59477952  0.34869879  0.68955905  1
  Pt  Pt1900  1  0.68955905  0.34869879  0.59477952  1
  Pt  Pt1901  1  0.59477952  0.34869879  0.31044095  1
  Pt  Pt1902  1  0.31044095  0.34869879  0.59477952  1
  Pt  Pt1903  1  0.68955905  0.34869879  0.40522047  1
  Pt  Pt1904  1  0.40522047  0.34869879  0.68955905  1
  Pt  Pt1905  1  0.40522047  0.34869879  0.31044095  1
  Pt  Pt1906  1  0.31044095  0.34869879  0.40522047  1
  Pt  Pt1907  1  0.59477952  0.65130121  0.68955905  1
  Pt  Pt1908  1  0.68955905  0.65130121  0.59477952  1
  Pt  Pt1909  1  0.59477952  0.65130121  0.31044095  1
  Pt  Pt1910  1  0.31044095  0.65130121  0.59477952  1
  Pt  Pt1911  1  0.68955905  0.65130121  0.40522047  1
  Pt  Pt1912  1  0.40522047  0.65130121  0.68955905  1
  Pt  Pt1913  1  0.40522047  0.65130121  0.31044095  1
  Pt  Pt1914  1  0.31044095  0.65130121  0.40522047  1
  Pt  Pt1915  1  0.68955905  0.40921928  0.65796587  1
  Pt  Pt1916  1  0.65796587  0.40921928  0.68955905  1
  Pt  Pt1917  1  0.65796587  0.40921928  0.31044095  1
  Pt  Pt1918  1  0.31044095  0.40921928  0.65796587  1
  Pt  Pt1919  1  0.68955905  0.59078073  0.65796587  1
  Pt  Pt1920  1  0.65796587  0.59078073  0.68955905  1
  Pt  Pt1921  1  0.65796587  0.59078073  0.31044095  1
  Pt  Pt1922  1  0.31044095  0.59078073  0.65796587  1
  Pt  Pt1923  1  0.68955905  0.40921928  0.34203412  1
  Pt  Pt1924  1  0.34203412  0.40921928  0.68955905  1
  Pt  Pt1925  1  0.31044095  0.40921928  0.34203412  1
  Pt  Pt1926  1  0.34203412  0.40921928  0.31044095  1
  Pt  Pt1927  1  0.68955905  0.59078073  0.34203412  1
  Pt  Pt1928  1  0.34203412  0.59078073  0.68955905  1
  Pt  Pt1929  1  0.31044095  0.59078073  0.34203412  1
  Pt  Pt1930  1  0.34203412  0.59078073  0.31044095  1
  Pt  Pt1931  1  0.50000000  0.28817831  0.65796587  1
  Pt  Pt1932  1  0.65796587  0.28817831  0.50000000  1
  Pt  Pt1933  1  0.59477952  0.28817831  0.62637270  1
  Pt  Pt1934  1  0.62637270  0.28817831  0.59477952  1
  Pt  Pt1935  1  0.59477952  0.28817831  0.37362730  1
  Pt  Pt1936  1  0.37362730  0.28817831  0.59477952  1
  Pt  Pt1937  1  0.62637270  0.28817831  0.40522047  1
  Pt  Pt1938  1  0.40522047  0.28817831  0.62637270  1
  Pt  Pt1939  1  0.40522047  0.28817831  0.37362730  1
  Pt  Pt1940  1  0.37362730  0.28817831  0.40522047  1
  Pt  Pt1941  1  0.50000000  0.28817831  0.34203412  1
  Pt  Pt1942  1  0.34203412  0.28817831  0.50000000  1
  Pt  Pt1943  1  0.65796587  0.71182169  0.50000000  1
  Pt  Pt1944  1  0.50000000  0.71182169  0.65796587  1
  Pt  Pt1945  1  0.59477952  0.71182169  0.62637270  1
  Pt  Pt1946  1  0.59477952  0.71182169  0.37362730  1
  Pt  Pt1947  1  0.62637270  0.71182169  0.59477952  1
  Pt  Pt1948  1  0.37362730  0.71182169  0.59477952  1
  Pt  Pt1949  1  0.62637270  0.71182169  0.40522047  1
  Pt  Pt1950  1  0.40522047  0.71182169  0.62637270  1
  Pt  Pt1951  1  0.40522047  0.71182169  0.37362730  1
  Pt  Pt1952  1  0.37362730  0.71182169  0.40522047  1
  Pt  Pt1953  1  0.50000000  0.71182169  0.34203412  1
  Pt  Pt1954  1  0.34203412  0.71182169  0.50000000  1
  Pt  Pt1955  1  0.72115222  0.34869879  0.50000000  1
  Pt  Pt1956  1  0.50000000  0.34869879  0.72115222  1
  Pt  Pt1957  1  0.72115222  0.65130121  0.50000000  1
  Pt  Pt1958  1  0.50000000  0.65130121  0.72115222  1
  Pt  Pt1959  1  0.50000000  0.34869879  0.27884777  1
  Pt  Pt1960  1  0.27884777  0.34869879  0.50000000  1
  Pt  Pt1961  1  0.50000000  0.65130121  0.27884777  1
  Pt  Pt1962  1  0.27884777  0.65130121  0.50000000  1
  Pt  Pt1963  1  0.72115222  0.40921928  0.37362730  1
  Pt  Pt1964  1  0.72115222  0.40921928  0.62637270  1
  Pt  Pt1965  1  0.62637270  0.40921928  0.72115222  1
  Pt  Pt1966  1  0.37362730  0.40921928  0.72115222  1
  Pt  Pt1967  1  0.72115222  0.59078073  0.62637270  1
  Pt  Pt1968  1  0.72115222  0.59078073  0.37362730  1
  Pt  Pt1969  1  0.62637270  0.59078073  0.72115222  1
  Pt  Pt1970  1  0.37362730  0.59078073  0.72115222  1
  Pt  Pt1971  1  0.75274540  0.40921928  0.53159317  1
  Pt  Pt1972  1  0.53159317  0.40921928  0.75274540  1
  Pt  Pt1973  1  0.53159317  0.40921928  0.24725460  1
  Pt  Pt1974  1  0.24725460  0.40921928  0.53159317  1
  Pt  Pt1975  1  0.75274540  0.40921928  0.46840682  1
  Pt  Pt1976  1  0.46840682  0.40921928  0.75274540  1
  Pt  Pt1977  1  0.46840682  0.40921928  0.24725460  1
  Pt  Pt1978  1  0.24725460  0.40921928  0.46840682  1
  Pt  Pt1979  1  0.75274540  0.59078073  0.53159317  1
  Pt  Pt1980  1  0.53159317  0.59078073  0.75274540  1
  Pt  Pt1981  1  0.53159317  0.59078073  0.24725460  1
  Pt  Pt1982  1  0.24725460  0.59078073  0.53159317  1
  Pt  Pt1983  1  0.75274540  0.59078073  0.46840682  1
  Pt  Pt1984  1  0.46840682  0.59078073  0.75274540  1
  Pt  Pt1985  1  0.46840682  0.59078073  0.24725460  1
  Pt  Pt1986  1  0.24725460  0.59078073  0.46840682  1
  Pt  Pt1987  1  0.62637270  0.40921928  0.27884777  1
  Pt  Pt1988  1  0.27884777  0.40921928  0.62637270  1
  Pt  Pt1989  1  0.37362730  0.40921928  0.27884777  1
  Pt  Pt1990  1  0.27884777  0.40921928  0.37362730  1
  Pt  Pt1991  1  0.62637270  0.59078073  0.27884777  1
  Pt  Pt1992  1  0.37362730  0.59078073  0.27884777  1
  Pt  Pt1993  1  0.27884777  0.59078073  0.37362730  1
  Pt  Pt1994  1  0.27884777  0.59078073  0.62637270  1
  Pt  Pt1995  1  0.75274540  0.46973976  0.59477952  1
  Pt  Pt1996  1  0.59477952  0.46973976  0.75274540  1
  Pt  Pt1997  1  0.59477952  0.46973976  0.24725460  1
  Pt  Pt1998  1  0.24725460  0.46973976  0.59477952  1
  Pt  Pt1999  1  0.75274540  0.53026024  0.59477952  1
  Pt  Pt2000  1  0.59477952  0.53026024  0.75274540  1
  Pt  Pt2001  1  0.59477952  0.53026024  0.24725460  1
  Pt  Pt2002  1  0.24725460  0.53026024  0.59477952  1
  Pt  Pt2003  1  0.75274540  0.46973976  0.40522047  1
  Pt  Pt2004  1  0.40522047  0.46973976  0.75274540  1
  Pt  Pt2005  1  0.40522047  0.46973976  0.24725460  1
  Pt  Pt2006  1  0.24725460  0.46973976  0.40522047  1
  Pt  Pt2007  1  0.75274540  0.53026024  0.40522047  1
  Pt  Pt2008  1  0.40522047  0.53026024  0.75274540  1
  Pt  Pt2009  1  0.40522047  0.53026024  0.24725460  1
  Pt  Pt2010  1  0.24725460  0.53026024  0.40522047  1
  Pt  Pt2011  1  0.56318635  0.28817831  0.65796587  1
  Pt  Pt2012  1  0.43681365  0.28817831  0.65796587  1
  Pt  Pt2013  1  0.65796587  0.28817831  0.43681365  1
  Pt  Pt2014  1  0.65796587  0.28817831  0.56318635  1
  Pt  Pt2015  1  0.34203412  0.28817831  0.56318635  1
  Pt  Pt2016  1  0.56318635  0.28817831  0.34203412  1
  Pt  Pt2017  1  0.43681365  0.28817831  0.34203412  1
  Pt  Pt2018  1  0.34203412  0.28817831  0.43681365  1
  Pt  Pt2019  1  0.56318635  0.71182169  0.65796587  1
  Pt  Pt2020  1  0.65796587  0.71182169  0.43681365  1
  Pt  Pt2021  1  0.43681365  0.71182169  0.65796587  1
  Pt  Pt2022  1  0.65796587  0.71182169  0.56318635  1
  Pt  Pt2023  1  0.56318635  0.71182169  0.34203412  1
  Pt  Pt2024  1  0.43681365  0.71182169  0.34203412  1
  Pt  Pt2025  1  0.34203412  0.71182169  0.56318635  1
  Pt  Pt2026  1  0.34203412  0.71182169  0.43681365  1
  Pt  Pt2027  1  0.50000000  0.22765783  0.53159317  1
  Pt  Pt2028  1  0.53159317  0.22765783  0.50000000  1
  Pt  Pt2029  1  0.50000000  0.22765783  0.46840682  1
  Pt  Pt2030  1  0.46840682  0.22765783  0.50000000  1
  Pt  Pt2031  1  0.50000000  0.77234218  0.53159317  1
  Pt  Pt2032  1  0.53159317  0.77234218  0.50000000  1
  Pt  Pt2033  1  0.46840682  0.77234218  0.50000000  1
  Pt  Pt2034  1  0.50000000  0.77234218  0.46840682  1
  Pt  Pt2035  1  0.72115222  0.34869879  0.43681365  1
  Pt  Pt2036  1  0.72115222  0.34869879  0.56318635  1
  Pt  Pt2037  1  0.56318635  0.34869879  0.72115222  1
  Pt  Pt2038  1  0.43681365  0.34869879  0.72115222  1
  Pt  Pt2039  1  0.72115222  0.65130121  0.56318635  1
  Pt  Pt2040  1  0.72115222  0.65130121  0.43681365  1
  Pt  Pt2041  1  0.56318635  0.65130121  0.72115222  1
  Pt  Pt2042  1  0.43681365  0.65130121  0.72115222  1
  Pt  Pt2043  1  0.56318635  0.34869879  0.27884777  1
  Pt  Pt2044  1  0.43681365  0.34869879  0.27884777  1
  Pt  Pt2045  1  0.27884777  0.34869879  0.56318635  1
  Pt  Pt2046  1  0.27884777  0.34869879  0.43681365  1
  Pt  Pt2047  1  0.56318635  0.65130121  0.27884777  1
  Pt  Pt2048  1  0.27884777  0.65130121  0.56318635  1
  Pt  Pt2049  1  0.43681365  0.65130121  0.27884777  1
  Pt  Pt2050  1  0.27884777  0.65130121  0.43681365  1
  Pt  Pt2051  1  0.53159317  0.22765783  0.56318635  1
  Pt  Pt2052  1  0.53159317  0.22765783  0.43681365  1
  Pt  Pt2053  1  0.43681365  0.22765783  0.53159317  1
  Pt  Pt2054  1  0.56318635  0.22765783  0.53159317  1
  Pt  Pt2055  1  0.43681365  0.22765783  0.46840682  1
  Pt  Pt2056  1  0.56318635  0.22765783  0.46840682  1
  Pt  Pt2057  1  0.46840682  0.22765783  0.56318635  1
  Pt  Pt2058  1  0.46840682  0.22765783  0.43681365  1
  Pt  Pt2059  1  0.53159317  0.77234218  0.43681365  1
  Pt  Pt2060  1  0.53159317  0.77234218  0.56318635  1
  Pt  Pt2061  1  0.56318635  0.77234218  0.53159317  1
  Pt  Pt2062  1  0.43681365  0.77234218  0.53159317  1
  Pt  Pt2063  1  0.56318635  0.77234218  0.46840682  1
  Pt  Pt2064  1  0.46840682  0.77234218  0.43681365  1
  Pt  Pt2065  1  0.46840682  0.77234218  0.56318635  1
  Pt  Pt2066  1  0.43681365  0.77234218  0.46840682  1
  Pt  Pt2067  1  0.75274540  0.40921928  0.59477952  1
  Pt  Pt2068  1  0.59477952  0.40921928  0.75274540  1
  Pt  Pt2069  1  0.59477952  0.40921928  0.24725460  1
  Pt  Pt2070  1  0.24725460  0.40921928  0.59477952  1
  Pt  Pt2071  1  0.59477952  0.59078073  0.75274540  1
  Pt  Pt2072  1  0.75274540  0.59078073  0.59477952  1
  Pt  Pt2073  1  0.59477952  0.59078073  0.24725460  1
  Pt  Pt2074  1  0.24725460  0.59078073  0.59477952  1
  Pt  Pt2075  1  0.75274540  0.40921928  0.40522047  1
  Pt  Pt2076  1  0.40522047  0.40921928  0.75274540  1
  Pt  Pt2077  1  0.40522047  0.40921928  0.24725460  1
  Pt  Pt2078  1  0.24725460  0.40921928  0.40522047  1
  Pt  Pt2079  1  0.75274540  0.59078073  0.40522047  1
  Pt  Pt2080  1  0.40522047  0.59078073  0.75274540  1
  Pt  Pt2081  1  0.24725460  0.59078073  0.40522047  1
  Pt  Pt2082  1  0.40522047  0.59078073  0.24725460  1
  Pt  Pt2083  1  0.50000000  0.46973976  0.78433857  1
  Pt  Pt2084  1  0.78433857  0.46973976  0.50000000  1
  Pt  Pt2085  1  0.50000000  0.53026024  0.78433857  1
  Pt  Pt2086  1  0.78433857  0.53026024  0.50000000  1
  Pt  Pt2087  1  0.50000000  0.46973976  0.21566142  1
  Pt  Pt2088  1  0.21566142  0.46973976  0.50000000  1
  Pt  Pt2089  1  0.50000000  0.53026024  0.21566142  1
  Pt  Pt2090  1  0.21566142  0.53026024  0.50000000  1
  Pt  Pt2091  1  0.53159317  0.28817831  0.68955905  1
  Pt  Pt2092  1  0.68955905  0.28817831  0.53159317  1
  Pt  Pt2093  1  0.53159317  0.28817831  0.31044095  1
  Pt  Pt2094  1  0.31044095  0.28817831  0.53159317  1
  Pt  Pt2095  1  0.46840682  0.28817831  0.68955905  1
  Pt  Pt2096  1  0.68955905  0.28817831  0.46840682  1
  Pt  Pt2097  1  0.31044095  0.28817831  0.46840682  1
  Pt  Pt2098  1  0.46840682  0.28817831  0.31044095  1
  Pt  Pt2099  1  0.68955905  0.71182169  0.53159317  1
  Pt  Pt2100  1  0.53159317  0.71182169  0.68955905  1
  Pt  Pt2101  1  0.53159317  0.71182169  0.31044095  1
  Pt  Pt2102  1  0.31044095  0.71182169  0.53159317  1
  Pt  Pt2103  1  0.68955905  0.71182169  0.46840682  1
  Pt  Pt2104  1  0.46840682  0.71182169  0.68955905  1
  Pt  Pt2105  1  0.31044095  0.71182169  0.46840682  1
  Pt  Pt2106  1  0.46840682  0.71182169  0.31044095  1
  Pt  Pt2107  1  0.50000000  0.22765783  0.59477952  1
  Pt  Pt2108  1  0.59477952  0.22765783  0.50000000  1
  Pt  Pt2109  1  0.50000000  0.22765783  0.40522047  1
  Pt  Pt2110  1  0.40522047  0.22765783  0.50000000  1
  Pt  Pt2111  1  0.59477952  0.77234218  0.50000000  1
  Pt  Pt2112  1  0.50000000  0.77234218  0.59477952  1
  Pt  Pt2113  1  0.50000000  0.77234218  0.40522047  1
  Pt  Pt2114  1  0.40522047  0.77234218  0.50000000  1
  Pt  Pt2115  1  0.68955905  0.34869879  0.65796587  1
  Pt  Pt2116  1  0.65796587  0.34869879  0.68955905  1
  Pt  Pt2117  1  0.65796587  0.34869879  0.31044095  1
  Pt  Pt2118  1  0.31044095  0.34869879  0.65796587  1
  Pt  Pt2119  1  0.65796587  0.65130121  0.31044095  1
  Pt  Pt2120  1  0.68955905  0.65130121  0.65796587  1
  Pt  Pt2121  1  0.65796587  0.65130121  0.68955905  1
  Pt  Pt2122  1  0.31044095  0.65130121  0.65796587  1
  Pt  Pt2123  1  0.68955905  0.34869879  0.34203412  1
  Pt  Pt2124  1  0.34203412  0.34869879  0.68955905  1
  Pt  Pt2125  1  0.34203412  0.34869879  0.31044095  1
  Pt  Pt2126  1  0.31044095  0.34869879  0.34203412  1
  Pt  Pt2127  1  0.68955905  0.65130121  0.34203412  1
  Pt  Pt2128  1  0.34203412  0.65130121  0.68955905  1
  Pt  Pt2129  1  0.31044095  0.65130121  0.34203412  1
  Pt  Pt2130  1  0.34203412  0.65130121  0.31044095  1
  Pt  Pt2131  1  0.56318635  0.46973976  0.78433857  1
  Pt  Pt2132  1  0.43681365  0.46973976  0.78433857  1
  Pt  Pt2133  1  0.78433857  0.46973976  0.43681365  1
  Pt  Pt2134  1  0.78433857  0.46973976  0.56318635  1
  Pt  Pt2135  1  0.56318635  0.53026024  0.78433857  1
  Pt  Pt2136  1  0.78433857  0.53026024  0.56318635  1
  Pt  Pt2137  1  0.78433857  0.53026024  0.43681365  1
  Pt  Pt2138  1  0.43681365  0.53026024  0.78433857  1
  Pt  Pt2139  1  0.72115222  0.46973976  0.68955905  1
  Pt  Pt2140  1  0.68955905  0.46973976  0.72115222  1
  Pt  Pt2141  1  0.72115222  0.46973976  0.31044095  1
  Pt  Pt2142  1  0.31044095  0.46973976  0.72115222  1
  Pt  Pt2143  1  0.72115222  0.53026024  0.31044095  1
  Pt  Pt2144  1  0.72115222  0.53026024  0.68955905  1
  Pt  Pt2145  1  0.68955905  0.53026024  0.72115222  1
  Pt  Pt2146  1  0.31044095  0.53026024  0.72115222  1
  Pt  Pt2147  1  0.68955905  0.46973976  0.27884777  1
  Pt  Pt2148  1  0.27884777  0.46973976  0.68955905  1
  Pt  Pt2149  1  0.31044095  0.46973976  0.27884777  1
  Pt  Pt2150  1  0.27884777  0.46973976  0.31044095  1
  Pt  Pt2151  1  0.68955905  0.53026024  0.27884777  1
  Pt  Pt2152  1  0.27884777  0.53026024  0.68955905  1
  Pt  Pt2153  1  0.27884777  0.53026024  0.31044095  1
  Pt  Pt2154  1  0.31044095  0.53026024  0.27884777  1
  Pt  Pt2155  1  0.56318635  0.46973976  0.21566142  1
  Pt  Pt2156  1  0.43681365  0.46973976  0.21566142  1
  Pt  Pt2157  1  0.21566142  0.46973976  0.43681365  1
  Pt  Pt2158  1  0.21566142  0.46973976  0.56318635  1
  Pt  Pt2159  1  0.56318635  0.53026024  0.21566142  1
  Pt  Pt2160  1  0.43681365  0.53026024  0.21566142  1
  Pt  Pt2161  1  0.21566142  0.53026024  0.56318635  1
  Pt  Pt2162  1  0.21566142  0.53026024  0.43681365  1
  Pt  Pt2163  1  0.37362730  0.28817831  0.65796587  1
  Pt  Pt2164  1  0.65796587  0.28817831  0.37362730  1
  Pt  Pt2165  1  0.65796587  0.28817831  0.62637270  1
  Pt  Pt2166  1  0.62637270  0.28817831  0.65796587  1
  Pt  Pt2167  1  0.62637270  0.28817831  0.34203412  1
  Pt  Pt2168  1  0.34203412  0.28817831  0.62637270  1
  Pt  Pt2169  1  0.34203412  0.28817831  0.37362730  1
  Pt  Pt2170  1  0.37362730  0.28817831  0.34203412  1
  Pt  Pt2171  1  0.65796587  0.71182169  0.37362730  1
  Pt  Pt2172  1  0.62637270  0.71182169  0.65796587  1
  Pt  Pt2173  1  0.65796587  0.71182169  0.62637270  1
  Pt  Pt2174  1  0.37362730  0.71182169  0.65796587  1
  Pt  Pt2175  1  0.62637270  0.71182169  0.34203412  1
  Pt  Pt2176  1  0.34203412  0.71182169  0.37362730  1
  Pt  Pt2177  1  0.37362730  0.71182169  0.34203412  1
  Pt  Pt2178  1  0.34203412  0.71182169  0.62637270  1
  Pt  Pt2179  1  0.56318635  0.22765783  0.59477952  1
  Pt  Pt2180  1  0.43681365  0.22765783  0.59477952  1
  Pt  Pt2181  1  0.59477952  0.22765783  0.56318635  1
  Pt  Pt2182  1  0.59477952  0.22765783  0.43681365  1
  Pt  Pt2183  1  0.40522047  0.22765783  0.43681365  1
  Pt  Pt2184  1  0.43681365  0.22765783  0.40522047  1
  Pt  Pt2185  1  0.40522047  0.22765783  0.56318635  1
  Pt  Pt2186  1  0.56318635  0.22765783  0.40522047  1
  Pt  Pt2187  1  0.59477952  0.77234218  0.43681365  1
  Pt  Pt2188  1  0.59477952  0.77234218  0.56318635  1
  Pt  Pt2189  1  0.56318635  0.77234218  0.59477952  1
  Pt  Pt2190  1  0.43681365  0.77234218  0.59477952  1
  Pt  Pt2191  1  0.56318635  0.77234218  0.40522047  1
  Pt  Pt2192  1  0.40522047  0.77234218  0.43681365  1
  Pt  Pt2193  1  0.40522047  0.77234218  0.56318635  1
  Pt  Pt2194  1  0.43681365  0.77234218  0.40522047  1
  Pt  Pt2195  1  0.72115222  0.34869879  0.62637270  1
  Pt  Pt2196  1  0.72115222  0.34869879  0.37362730  1
  Pt  Pt2197  1  0.62637270  0.34869879  0.72115222  1
  Pt  Pt2198  1  0.37362730  0.34869879  0.72115222  1
  Pt  Pt2199  1  0.75274540  0.34869879  0.53159317  1
  Pt  Pt2200  1  0.53159317  0.34869879  0.75274540  1
  Pt  Pt2201  1  0.53159317  0.34869879  0.24725460  1
  Pt  Pt2202  1  0.24725460  0.34869879  0.53159317  1
  Pt  Pt2203  1  0.75274540  0.34869879  0.46840682  1
  Pt  Pt2204  1  0.46840682  0.34869879  0.75274540  1
  Pt  Pt2205  1  0.46840682  0.34869879  0.24725460  1
  Pt  Pt2206  1  0.24725460  0.34869879  0.46840682  1
  Pt  Pt2207  1  0.72115222  0.65130121  0.62637270  1
  Pt  Pt2208  1  0.62637270  0.65130121  0.72115222  1
  Pt  Pt2209  1  0.72115222  0.65130121  0.37362730  1
  Pt  Pt2210  1  0.37362730  0.65130121  0.72115222  1
  Pt  Pt2211  1  0.62637270  0.34869879  0.27884777  1
  Pt  Pt2212  1  0.27884777  0.34869879  0.62637270  1
  Pt  Pt2213  1  0.27884777  0.34869879  0.37362730  1
  Pt  Pt2214  1  0.37362730  0.34869879  0.27884777  1
  Pt  Pt2215  1  0.75274540  0.65130121  0.53159317  1
  Pt  Pt2216  1  0.53159317  0.65130121  0.75274540  1
  Pt  Pt2217  1  0.53159317  0.65130121  0.24725460  1
  Pt  Pt2218  1  0.24725460  0.65130121  0.53159317  1
  Pt  Pt2219  1  0.75274540  0.65130121  0.46840682  1
  Pt  Pt2220  1  0.46840682  0.65130121  0.75274540  1
  Pt  Pt2221  1  0.46840682  0.65130121  0.24725460  1
  Pt  Pt2222  1  0.24725460  0.65130121  0.46840682  1
  Pt  Pt2223  1  0.62637270  0.65130121  0.27884777  1
  Pt  Pt2224  1  0.37362730  0.65130121  0.27884777  1
  Pt  Pt2225  1  0.27884777  0.65130121  0.62637270  1
  Pt  Pt2226  1  0.27884777  0.65130121  0.37362730  1
  Pt  Pt2227  1  0.50000000  0.40921928  0.78433857  1
  Pt  Pt2228  1  0.78433857  0.40921928  0.50000000  1
  Pt  Pt2229  1  0.78433857  0.59078073  0.50000000  1
  Pt  Pt2230  1  0.50000000  0.59078073  0.78433857  1
  Pt  Pt2231  1  0.50000000  0.40921928  0.21566142  1
  Pt  Pt2232  1  0.21566142  0.40921928  0.50000000  1
  Pt  Pt2233  1  0.50000000  0.59078073  0.21566142  1
  Pt  Pt2234  1  0.21566142  0.59078073  0.50000000  1
  Pt  Pt2235  1  0.75274540  0.46973976  0.65796587  1
  Pt  Pt2236  1  0.65796587  0.46973976  0.75274540  1
  Pt  Pt2237  1  0.65796587  0.46973976  0.24725460  1
  Pt  Pt2238  1  0.24725460  0.46973976  0.65796587  1
  Pt  Pt2239  1  0.65796587  0.53026024  0.75274540  1
  Pt  Pt2240  1  0.75274540  0.53026024  0.65796587  1
  Pt  Pt2241  1  0.65796587  0.53026024  0.24725460  1
  Pt  Pt2242  1  0.24725460  0.53026024  0.65796587  1
  Pt  Pt2243  1  0.75274540  0.46973976  0.34203412  1
  Pt  Pt2244  1  0.34203412  0.46973976  0.75274540  1
  Pt  Pt2245  1  0.34203412  0.46973976  0.24725460  1
  Pt  Pt2246  1  0.24725460  0.46973976  0.34203412  1
  Pt  Pt2247  1  0.75274540  0.53026024  0.34203412  1
  Pt  Pt2248  1  0.34203412  0.53026024  0.75274540  1
  Pt  Pt2249  1  0.24725460  0.53026024  0.34203412  1
  Pt  Pt2250  1  0.34203412  0.53026024  0.24725460  1
  Pt  Pt2251  1  0.68955905  0.28817831  0.59477952  1
  Pt  Pt2252  1  0.59477952  0.28817831  0.68955905  1
  Pt  Pt2253  1  0.59477952  0.28817831  0.31044095  1
  Pt  Pt2254  1  0.31044095  0.28817831  0.59477952  1
  Pt  Pt2255  1  0.40522047  0.28817831  0.68955905  1
  Pt  Pt2256  1  0.68955905  0.28817831  0.40522047  1
  Pt  Pt2257  1  0.31044095  0.28817831  0.40522047  1
  Pt  Pt2258  1  0.40522047  0.28817831  0.31044095  1
  Pt  Pt2259  1  0.59477952  0.71182169  0.68955905  1
  Pt  Pt2260  1  0.59477952  0.71182169  0.31044095  1
  Pt  Pt2261  1  0.68955905  0.71182169  0.59477952  1
  Pt  Pt2262  1  0.31044095  0.71182169  0.59477952  1
  Pt  Pt2263  1  0.68955905  0.71182169  0.40522047  1
  Pt  Pt2264  1  0.40522047  0.71182169  0.68955905  1
  Pt  Pt2265  1  0.31044095  0.71182169  0.40522047  1
  Pt  Pt2266  1  0.40522047  0.71182169  0.31044095  1
  Pt  Pt2267  1  0.53159317  0.22765783  0.62637270  1
  Pt  Pt2268  1  0.53159317  0.22765783  0.37362730  1
  Pt  Pt2269  1  0.62637270  0.22765783  0.53159317  1
  Pt  Pt2270  1  0.37362730  0.22765783  0.53159317  1
  Pt  Pt2271  1  0.62637270  0.22765783  0.46840682  1
  Pt  Pt2272  1  0.46840682  0.22765783  0.37362730  1
  Pt  Pt2273  1  0.46840682  0.22765783  0.62637270  1
  Pt  Pt2274  1  0.37362730  0.22765783  0.46840682  1
  Pt  Pt2275  1  0.62637270  0.77234218  0.53159317  1
  Pt  Pt2276  1  0.53159317  0.77234218  0.37362730  1
  Pt  Pt2277  1  0.53159317  0.77234218  0.62637270  1
  Pt  Pt2278  1  0.37362730  0.77234218  0.53159317  1
  Pt  Pt2279  1  0.62637270  0.77234218  0.46840682  1
  Pt  Pt2280  1  0.46840682  0.77234218  0.62637270  1
  Pt  Pt2281  1  0.46840682  0.77234218  0.37362730  1
  Pt  Pt2282  1  0.37362730  0.77234218  0.46840682  1
  Pt  Pt2283  1  0.56318635  0.40921928  0.78433857  1
  Pt  Pt2284  1  0.43681365  0.40921928  0.78433857  1
  Pt  Pt2285  1  0.78433857  0.40921928  0.56318635  1
  Pt  Pt2286  1  0.78433857  0.40921928  0.43681365  1
  Pt  Pt2287  1  0.72115222  0.40921928  0.68955905  1
  Pt  Pt2288  1  0.72115222  0.40921928  0.31044095  1
  Pt  Pt2289  1  0.68955905  0.40921928  0.72115222  1
  Pt  Pt2290  1  0.31044095  0.40921928  0.72115222  1
  Pt  Pt2291  1  0.56318635  0.59078073  0.78433857  1
  Pt  Pt2292  1  0.78433857  0.59078073  0.56318635  1
  Pt  Pt2293  1  0.78433857  0.59078073  0.43681365  1
  Pt  Pt2294  1  0.43681365  0.59078073  0.78433857  1
  Pt  Pt2295  1  0.72115222  0.59078073  0.31044095  1
  Pt  Pt2296  1  0.68955905  0.59078073  0.72115222  1
  Pt  Pt2297  1  0.72115222  0.59078073  0.68955905  1
  Pt  Pt2298  1  0.31044095  0.59078073  0.72115222  1
  Pt  Pt2299  1  0.68955905  0.40921928  0.27884777  1
  Pt  Pt2300  1  0.27884777  0.40921928  0.68955905  1
  Pt  Pt2301  1  0.27884777  0.40921928  0.31044095  1
  Pt  Pt2302  1  0.31044095  0.40921928  0.27884777  1
  Pt  Pt2303  1  0.56318635  0.40921928  0.21566142  1
  Pt  Pt2304  1  0.43681365  0.40921928  0.21566142  1
  Pt  Pt2305  1  0.21566142  0.40921928  0.56318635  1
  Pt  Pt2306  1  0.21566142  0.40921928  0.43681365  1
  Pt  Pt2307  1  0.68955905  0.59078073  0.27884777  1
  Pt  Pt2308  1  0.27884777  0.59078073  0.68955905  1
  Pt  Pt2309  1  0.31044095  0.59078073  0.27884777  1
  Pt  Pt2310  1  0.27884777  0.59078073  0.31044095  1
  Pt  Pt2311  1  0.56318635  0.59078073  0.21566142  1
  Pt  Pt2312  1  0.43681365  0.59078073  0.21566142  1
  Pt  Pt2313  1  0.21566142  0.59078073  0.43681365  1
  Pt  Pt2314  1  0.21566142  0.59078073  0.56318635  1
  Pt  Pt2315  1  0.72115222  0.28817831  0.50000000  1
  Pt  Pt2316  1  0.50000000  0.28817831  0.72115222  1
  Pt  Pt2317  1  0.72115222  0.71182169  0.50000000  1
  Pt  Pt2318  1  0.50000000  0.71182169  0.72115222  1
  Pt  Pt2319  1  0.50000000  0.28817831  0.27884777  1
  Pt  Pt2320  1  0.27884777  0.28817831  0.50000000  1
  Pt  Pt2321  1  0.50000000  0.71182169  0.27884777  1
  Pt  Pt2322  1  0.27884777  0.71182169  0.50000000  1
  Pt  Pt2323  1  0.75274540  0.34869879  0.59477952  1
  Pt  Pt2324  1  0.59477952  0.34869879  0.75274540  1
  Pt  Pt2325  1  0.59477952  0.34869879  0.24725460  1
  Pt  Pt2326  1  0.24725460  0.34869879  0.59477952  1
  Pt  Pt2327  1  0.75274540  0.34869879  0.40522047  1
  Pt  Pt2328  1  0.40522047  0.34869879  0.75274540  1
  Pt  Pt2329  1  0.40522047  0.34869879  0.24725460  1
  Pt  Pt2330  1  0.24725460  0.34869879  0.40522047  1
  Pt  Pt2331  1  0.59477952  0.65130121  0.75274540  1
  Pt  Pt2332  1  0.75274540  0.65130121  0.59477952  1
  Pt  Pt2333  1  0.59477952  0.65130121  0.24725460  1
  Pt  Pt2334  1  0.24725460  0.65130121  0.59477952  1
  Pt  Pt2335  1  0.75274540  0.65130121  0.40522047  1
  Pt  Pt2336  1  0.40522047  0.65130121  0.75274540  1
  Pt  Pt2337  1  0.40522047  0.65130121  0.24725460  1
  Pt  Pt2338  1  0.24725460  0.65130121  0.40522047  1
  Pt  Pt2339  1  0.75274540  0.40921928  0.65796587  1
  Pt  Pt2340  1  0.65796587  0.40921928  0.75274540  1
  Pt  Pt2341  1  0.65796587  0.40921928  0.24725460  1
  Pt  Pt2342  1  0.24725460  0.40921928  0.65796587  1
  Pt  Pt2343  1  0.75274540  0.59078073  0.65796587  1
  Pt  Pt2344  1  0.65796587  0.59078073  0.75274540  1
  Pt  Pt2345  1  0.65796587  0.59078073  0.24725460  1
  Pt  Pt2346  1  0.24725460  0.59078073  0.65796587  1
  Pt  Pt2347  1  0.75274540  0.40921928  0.34203412  1
  Pt  Pt2348  1  0.34203412  0.40921928  0.75274540  1
  Pt  Pt2349  1  0.34203412  0.40921928  0.24725460  1
  Pt  Pt2350  1  0.24725460  0.40921928  0.34203412  1
  Pt  Pt2351  1  0.75274540  0.59078073  0.34203412  1
  Pt  Pt2352  1  0.34203412  0.59078073  0.75274540  1
  Pt  Pt2353  1  0.34203412  0.59078073  0.24725460  1
  Pt  Pt2354  1  0.24725460  0.59078073  0.34203412  1
  Pt  Pt2355  1  0.78433857  0.46973976  0.62637270  1
  Pt  Pt2356  1  0.62637270  0.46973976  0.78433857  1
  Pt  Pt2357  1  0.37362730  0.46973976  0.78433857  1
  Pt  Pt2358  1  0.78433857  0.46973976  0.37362730  1
  Pt  Pt2359  1  0.62637270  0.53026024  0.78433857  1
  Pt  Pt2360  1  0.78433857  0.53026024  0.62637270  1
  Pt  Pt2361  1  0.78433857  0.53026024  0.37362730  1
  Pt  Pt2362  1  0.37362730  0.53026024  0.78433857  1
  Pt  Pt2363  1  0.62637270  0.46973976  0.21566142  1
  Pt  Pt2364  1  0.37362730  0.46973976  0.21566142  1
  Pt  Pt2365  1  0.21566142  0.46973976  0.62637270  1
  Pt  Pt2366  1  0.21566142  0.46973976  0.37362730  1
  Pt  Pt2367  1  0.62637270  0.53026024  0.21566142  1
  Pt  Pt2368  1  0.37362730  0.53026024  0.21566142  1
  Pt  Pt2369  1  0.21566142  0.53026024  0.62637270  1
  Pt  Pt2370  1  0.21566142  0.53026024  0.37362730  1
  Pt  Pt2371  1  0.72115222  0.28817831  0.43681365  1
  Pt  Pt2372  1  0.72115222  0.28817831  0.56318635  1
  Pt  Pt2373  1  0.56318635  0.28817831  0.72115222  1
  Pt  Pt2374  1  0.43681365  0.28817831  0.72115222  1
  Pt  Pt2375  1  0.72115222  0.71182169  0.56318635  1
  Pt  Pt2376  1  0.72115222  0.71182169  0.43681365  1
  Pt  Pt2377  1  0.56318635  0.71182169  0.72115222  1
  Pt  Pt2378  1  0.43681365  0.71182169  0.72115222  1
  Pt  Pt2379  1  0.27884777  0.28817831  0.56318635  1
  Pt  Pt2380  1  0.27884777  0.28817831  0.43681365  1
  Pt  Pt2381  1  0.56318635  0.28817831  0.27884777  1
  Pt  Pt2382  1  0.43681365  0.28817831  0.27884777  1
  Pt  Pt2383  1  0.43681365  0.71182169  0.27884777  1
  Pt  Pt2384  1  0.27884777  0.71182169  0.43681365  1
  Pt  Pt2385  1  0.27884777  0.71182169  0.56318635  1
  Pt  Pt2386  1  0.56318635  0.71182169  0.27884777  1
  Pt  Pt2387  1  0.50000000  0.22765783  0.65796587  1
  Pt  Pt2388  1  0.65796587  0.22765783  0.50000000  1
  Pt  Pt2389  1  0.59477952  0.22765783  0.62637270  1
  Pt  Pt2390  1  0.59477952  0.22765783  0.37362730  1
  Pt  Pt2391  1  0.62637270  0.22765783  0.59477952  1
  Pt  Pt2392  1  0.37362730  0.22765783  0.59477952  1
  Pt  Pt2393  1  0.40522047  0.22765783  0.37362730  1
  Pt  Pt2394  1  0.40522047  0.22765783  0.62637270  1
  Pt  Pt2395  1  0.62637270  0.22765783  0.40522047  1
  Pt  Pt2396  1  0.37362730  0.22765783  0.40522047  1
  Pt  Pt2397  1  0.50000000  0.22765783  0.34203412  1
  Pt  Pt2398  1  0.34203412  0.22765783  0.50000000  1
  Pt  Pt2399  1  0.65796587  0.77234218  0.50000000  1
  Pt  Pt2400  1  0.50000000  0.77234218  0.65796587  1
  Pt  Pt2401  1  0.59477952  0.77234218  0.37362730  1
  Pt  Pt2402  1  0.62637270  0.77234218  0.59477952  1
  Pt  Pt2403  1  0.59477952  0.77234218  0.62637270  1
  Pt  Pt2404  1  0.37362730  0.77234218  0.59477952  1
  Pt  Pt2405  1  0.62637270  0.77234218  0.40522047  1
  Pt  Pt2406  1  0.40522047  0.77234218  0.62637270  1
  Pt  Pt2407  1  0.40522047  0.77234218  0.37362730  1
  Pt  Pt2408  1  0.37362730  0.77234218  0.40522047  1
  Pt  Pt2409  1  0.50000000  0.77234218  0.34203412  1
  Pt  Pt2410  1  0.34203412  0.77234218  0.50000000  1
  Pt  Pt2411  1  0.53159317  0.46973976  0.81593175  1
  Pt  Pt2412  1  0.81593175  0.46973976  0.53159317  1
  Pt  Pt2413  1  0.53159317  0.46973976  0.18406825  1
  Pt  Pt2414  1  0.18406825  0.46973976  0.53159317  1
  Pt  Pt2415  1  0.53159317  0.53026024  0.81593175  1
  Pt  Pt2416  1  0.81593175  0.53026024  0.53159317  1
  Pt  Pt2417  1  0.53159317  0.53026024  0.18406825  1
  Pt  Pt2418  1  0.18406825  0.53026024  0.53159317  1
  Pt  Pt2419  1  0.81593175  0.46973976  0.46840682  1
  Pt  Pt2420  1  0.46840682  0.46973976  0.81593175  1
  Pt  Pt2421  1  0.46840682  0.46973976  0.18406825  1
  Pt  Pt2422  1  0.18406825  0.46973976  0.46840682  1
  Pt  Pt2423  1  0.46840682  0.53026024  0.81593175  1
  Pt  Pt2424  1  0.81593175  0.53026024  0.46840682  1
  Pt  Pt2425  1  0.46840682  0.53026024  0.18406825  1
  Pt  Pt2426  1  0.18406825  0.53026024  0.46840682  1
  Pt  Pt2427  1  0.65796587  0.22765783  0.56318635  1
  Pt  Pt2428  1  0.43681365  0.22765783  0.65796587  1
  Pt  Pt2429  1  0.56318635  0.22765783  0.65796587  1
  Pt  Pt2430  1  0.65796587  0.22765783  0.43681365  1
  Pt  Pt2431  1  0.34203412  0.22765783  0.43681365  1
  Pt  Pt2432  1  0.56318635  0.22765783  0.34203412  1
  Pt  Pt2433  1  0.43681365  0.22765783  0.34203412  1
  Pt  Pt2434  1  0.34203412  0.22765783  0.56318635  1
  Pt  Pt2435  1  0.65796587  0.77234218  0.43681365  1
  Pt  Pt2436  1  0.65796587  0.77234218  0.56318635  1
  Pt  Pt2437  1  0.43681365  0.77234218  0.65796587  1
  Pt  Pt2438  1  0.56318635  0.77234218  0.65796587  1
  Pt  Pt2439  1  0.56318635  0.77234218  0.34203412  1
  Pt  Pt2440  1  0.43681365  0.77234218  0.34203412  1
  Pt  Pt2441  1  0.34203412  0.77234218  0.43681365  1
  Pt  Pt2442  1  0.34203412  0.77234218  0.56318635  1
  Pt  Pt2443  1  0.50000000  0.34869879  0.78433857  1
  Pt  Pt2444  1  0.78433857  0.34869879  0.50000000  1
  Pt  Pt2445  1  0.78433857  0.65130121  0.50000000  1
  Pt  Pt2446  1  0.50000000  0.65130121  0.78433857  1
  Pt  Pt2447  1  0.50000000  0.34869879  0.21566142  1
  Pt  Pt2448  1  0.21566142  0.34869879  0.50000000  1
  Pt  Pt2449  1  0.50000000  0.65130121  0.21566142  1
  Pt  Pt2450  1  0.21566142  0.65130121  0.50000000  1
  Pt  Pt2451  1  0.62637270  0.40921928  0.78433857  1
  Pt  Pt2452  1  0.78433857  0.40921928  0.62637270  1
  Pt  Pt2453  1  0.37362730  0.40921928  0.78433857  1
  Pt  Pt2454  1  0.78433857  0.40921928  0.37362730  1
  Pt  Pt2455  1  0.62637270  0.59078073  0.78433857  1
  Pt  Pt2456  1  0.78433857  0.59078073  0.62637270  1
  Pt  Pt2457  1  0.78433857  0.59078073  0.37362730  1
  Pt  Pt2458  1  0.37362730  0.59078073  0.78433857  1
  Pt  Pt2459  1  0.62637270  0.40921928  0.21566142  1
  Pt  Pt2460  1  0.37362730  0.40921928  0.21566142  1
  Pt  Pt2461  1  0.21566142  0.40921928  0.62637270  1
  Pt  Pt2462  1  0.21566142  0.40921928  0.37362730  1
  Pt  Pt2463  1  0.62637270  0.59078073  0.21566142  1
  Pt  Pt2464  1  0.37362730  0.59078073  0.21566142  1
  Pt  Pt2465  1  0.21566142  0.59078073  0.62637270  1
  Pt  Pt2466  1  0.21566142  0.59078073  0.37362730  1
  Pt  Pt2467  1  0.65796587  0.28817831  0.68955905  1
  Pt  Pt2468  1  0.68955905  0.28817831  0.65796587  1
  Pt  Pt2469  1  0.31044095  0.28817831  0.65796587  1
  Pt  Pt2470  1  0.65796587  0.28817831  0.31044095  1
  Pt  Pt2471  1  0.68955905  0.28817831  0.34203412  1
  Pt  Pt2472  1  0.34203412  0.28817831  0.68955905  1
  Pt  Pt2473  1  0.31044095  0.28817831  0.34203412  1
  Pt  Pt2474  1  0.34203412  0.28817831  0.31044095  1
  Pt  Pt2475  1  0.65796587  0.71182169  0.68955905  1
  Pt  Pt2476  1  0.68955905  0.71182169  0.65796587  1
  Pt  Pt2477  1  0.65796587  0.71182169  0.31044095  1
  Pt  Pt2478  1  0.31044095  0.71182169  0.65796587  1
  Pt  Pt2479  1  0.68955905  0.71182169  0.34203412  1
  Pt  Pt2480  1  0.34203412  0.71182169  0.68955905  1
  Pt  Pt2481  1  0.31044095  0.71182169  0.34203412  1
  Pt  Pt2482  1  0.34203412  0.71182169  0.31044095  1
  Pt  Pt2483  1  0.78433857  0.34869879  0.56318635  1
  Pt  Pt2484  1  0.56318635  0.34869879  0.78433857  1
  Pt  Pt2485  1  0.78433857  0.34869879  0.43681365  1
  Pt  Pt2486  1  0.43681365  0.34869879  0.78433857  1
  Pt  Pt2487  1  0.72115222  0.34869879  0.68955905  1
  Pt  Pt2488  1  0.72115222  0.34869879  0.31044095  1
  Pt  Pt2489  1  0.68955905  0.34869879  0.72115222  1
  Pt  Pt2490  1  0.31044095  0.34869879  0.72115222  1
  Pt  Pt2491  1  0.78433857  0.65130121  0.43681365  1
  Pt  Pt2492  1  0.43681365  0.65130121  0.78433857  1
  Pt  Pt2493  1  0.56318635  0.65130121  0.78433857  1
  Pt  Pt2494  1  0.78433857  0.65130121  0.56318635  1
  Pt  Pt2495  1  0.72115222  0.65130121  0.31044095  1
  Pt  Pt2496  1  0.68955905  0.65130121  0.72115222  1
  Pt  Pt2497  1  0.72115222  0.65130121  0.68955905  1
  Pt  Pt2498  1  0.31044095  0.65130121  0.72115222  1
  Pt  Pt2499  1  0.68955905  0.34869879  0.27884777  1
  Pt  Pt2500  1  0.27884777  0.34869879  0.68955905  1
  Pt  Pt2501  1  0.31044095  0.34869879  0.27884777  1
  Pt  Pt2502  1  0.27884777  0.34869879  0.31044095  1
  Pt  Pt2503  1  0.43681365  0.34869879  0.21566142  1
  Pt  Pt2504  1  0.56318635  0.34869879  0.21566142  1
  Pt  Pt2505  1  0.21566142  0.34869879  0.43681365  1
  Pt  Pt2506  1  0.21566142  0.34869879  0.56318635  1
  Pt  Pt2507  1  0.68955905  0.65130121  0.27884777  1
  Pt  Pt2508  1  0.27884777  0.65130121  0.68955905  1
  Pt  Pt2509  1  0.31044095  0.65130121  0.27884777  1
  Pt  Pt2510  1  0.27884777  0.65130121  0.31044095  1
  Pt  Pt2511  1  0.43681365  0.65130121  0.21566142  1
  Pt  Pt2512  1  0.56318635  0.65130121  0.21566142  1
  Pt  Pt2513  1  0.21566142  0.65130121  0.56318635  1
  Pt  Pt2514  1  0.21566142  0.65130121  0.43681365  1
  Pt  Pt2515  1  0.81593175  0.40921928  0.53159317  1
  Pt  Pt2516  1  0.53159317  0.40921928  0.81593175  1
  Pt  Pt2517  1  0.53159317  0.40921928  0.18406825  1
  Pt  Pt2518  1  0.18406825  0.40921928  0.53159317  1
  Pt  Pt2519  1  0.46840682  0.40921928  0.81593175  1
  Pt  Pt2520  1  0.81593175  0.40921928  0.46840682  1
  Pt  Pt2521  1  0.46840682  0.40921928  0.18406825  1
  Pt  Pt2522  1  0.18406825  0.40921928  0.46840682  1
  Pt  Pt2523  1  0.53159317  0.59078073  0.81593175  1
  Pt  Pt2524  1  0.81593175  0.59078073  0.53159317  1
  Pt  Pt2525  1  0.53159317  0.59078073  0.18406825  1
  Pt  Pt2526  1  0.18406825  0.59078073  0.53159317  1
  Pt  Pt2527  1  0.46840682  0.59078073  0.81593175  1
  Pt  Pt2528  1  0.81593175  0.59078073  0.46840682  1
  Pt  Pt2529  1  0.46840682  0.59078073  0.18406825  1
  Pt  Pt2530  1  0.18406825  0.59078073  0.46840682  1
  Pt  Pt2531  1  0.59477952  0.46973976  0.81593175  1
  Pt  Pt2532  1  0.81593175  0.46973976  0.59477952  1
  Pt  Pt2533  1  0.59477952  0.46973976  0.18406825  1
  Pt  Pt2534  1  0.18406825  0.46973976  0.59477952  1
  Pt  Pt2535  1  0.81593175  0.53026024  0.59477952  1
  Pt  Pt2536  1  0.59477952  0.53026024  0.81593175  1
  Pt  Pt2537  1  0.59477952  0.53026024  0.18406825  1
  Pt  Pt2538  1  0.18406825  0.53026024  0.59477952  1
  Pt  Pt2539  1  0.40522047  0.46973976  0.81593175  1
  Pt  Pt2540  1  0.81593175  0.46973976  0.40522047  1
  Pt  Pt2541  1  0.40522047  0.46973976  0.18406825  1
  Pt  Pt2542  1  0.18406825  0.46973976  0.40522047  1
  Pt  Pt2543  1  0.40522047  0.53026024  0.81593175  1
  Pt  Pt2544  1  0.81593175  0.53026024  0.40522047  1
  Pt  Pt2545  1  0.40522047  0.53026024  0.18406825  1
  Pt  Pt2546  1  0.18406825  0.53026024  0.40522047  1
  Pt  Pt2547  1  0.72115222  0.28817831  0.62637270  1
  Pt  Pt2548  1  0.72115222  0.28817831  0.37362730  1
  Pt  Pt2549  1  0.62637270  0.28817831  0.72115222  1
  Pt  Pt2550  1  0.37362730  0.28817831  0.72115222  1
  Pt  Pt2551  1  0.75274540  0.28817831  0.53159317  1
  Pt  Pt2552  1  0.53159317  0.28817831  0.75274540  1
  Pt  Pt2553  1  0.24725460  0.28817831  0.53159317  1
  Pt  Pt2554  1  0.53159317  0.28817831  0.24725460  1
  Pt  Pt2555  1  0.75274540  0.28817831  0.46840682  1
  Pt  Pt2556  1  0.46840682  0.28817831  0.75274540  1
  Pt  Pt2557  1  0.46840682  0.28817831  0.24725460  1
  Pt  Pt2558  1  0.24725460  0.28817831  0.46840682  1
  Pt  Pt2559  1  0.72115222  0.71182169  0.37362730  1
  Pt  Pt2560  1  0.72115222  0.71182169  0.62637270  1
  Pt  Pt2561  1  0.62637270  0.71182169  0.72115222  1
  Pt  Pt2562  1  0.37362730  0.71182169  0.72115222  1
  Pt  Pt2563  1  0.62637270  0.28817831  0.27884777  1
  Pt  Pt2564  1  0.27884777  0.28817831  0.37362730  1
  Pt  Pt2565  1  0.37362730  0.28817831  0.27884777  1
  Pt  Pt2566  1  0.27884777  0.28817831  0.62637270  1
  Pt  Pt2567  1  0.75274540  0.71182169  0.53159317  1
  Pt  Pt2568  1  0.53159317  0.71182169  0.75274540  1
  Pt  Pt2569  1  0.53159317  0.71182169  0.24725460  1
  Pt  Pt2570  1  0.24725460  0.71182169  0.53159317  1
  Pt  Pt2571  1  0.75274540  0.71182169  0.46840682  1
  Pt  Pt2572  1  0.46840682  0.71182169  0.75274540  1
  Pt  Pt2573  1  0.46840682  0.71182169  0.24725460  1
  Pt  Pt2574  1  0.24725460  0.71182169  0.46840682  1
  Pt  Pt2575  1  0.62637270  0.71182169  0.27884777  1
  Pt  Pt2576  1  0.27884777  0.71182169  0.62637270  1
  Pt  Pt2577  1  0.27884777  0.71182169  0.37362730  1
  Pt  Pt2578  1  0.37362730  0.71182169  0.27884777  1
  Pt  Pt2579  1  0.68955905  0.22765783  0.53159317  1
  Pt  Pt2580  1  0.53159317  0.22765783  0.68955905  1
  Pt  Pt2581  1  0.31044095  0.22765783  0.53159317  1
  Pt  Pt2582  1  0.53159317  0.22765783  0.31044095  1
  Pt  Pt2583  1  0.68955905  0.22765783  0.46840682  1
  Pt  Pt2584  1  0.46840682  0.22765783  0.68955905  1
  Pt  Pt2585  1  0.46840682  0.22765783  0.31044095  1
  Pt  Pt2586  1  0.31044095  0.22765783  0.46840682  1
  Pt  Pt2587  1  0.68955905  0.77234218  0.53159317  1
  Pt  Pt2588  1  0.53159317  0.77234218  0.31044095  1
  Pt  Pt2589  1  0.53159317  0.77234218  0.68955905  1
  Pt  Pt2590  1  0.31044095  0.77234218  0.53159317  1
  Pt  Pt2591  1  0.68955905  0.77234218  0.46840682  1
  Pt  Pt2592  1  0.46840682  0.77234218  0.68955905  1
  Pt  Pt2593  1  0.31044095  0.77234218  0.46840682  1
  Pt  Pt2594  1  0.46840682  0.77234218  0.31044095  1
