data_con1.20_20nm_full
_audit_creation_date              2024-08-20
_audit_creation_method            'Materials Studio'
_symmetry_space_group_name_H-M    'P1'
_symmetry_Int_Tables_number       1
_symmetry_cell_setting            triclinic
loop_
_symmetry_equiv_pos_as_xyz
  x,y,z
_cell_length_a                    60.0000
_cell_length_b                    60.0000
_cell_length_c                    60.0000
_cell_angle_alpha                 90.0000
_cell_angle_beta                  90.0000
_cell_angle_gamma                 90.0000
loop_
_atom_site_label
_atom_site_type_symbol
_atom_site_fract_x
_atom_site_fract_y
_atom_site_fract_z
_atom_site_U_iso_or_equiv
_atom_site_adp_type
_atom_site_occupancy
Co1    Co    0.50000   0.50000   0.50000   0.00000  Uiso   1.00
Co2    Co    0.50000   0.46995   0.52998   0.00000  Uiso   1.00
Co3    Co    0.46995   0.50000   0.52998   0.00000  Uiso   1.00
Co4    Co    0.46995   0.50000   0.47002   0.00000  Uiso   1.00
Co5    Co    0.50000   0.46995   0.47002   0.00000  Uiso   1.00
Co6    Co    0.50000   0.53005   0.52998   0.00000  Uiso   1.00
Co7    Co    0.53005   0.50000   0.52998   0.00000  Uiso   1.00
Co8    Co    0.53005   0.50000   0.47002   0.00000  Uiso   1.00
Co9    Co    0.50000   0.53005   0.47002   0.00000  Uiso   1.00
Co10   Co    0.43991   0.50000   0.50000   0.00000  Uiso   1.00
Co11   Co    0.50000   0.43991   0.50000   0.00000  Uiso   1.00
Co12   Co    0.56009   0.50000   0.50000   0.00000  Uiso   1.00
Co13   Co    0.50000   0.56009   0.50000   0.00000  Uiso   1.00
Co14   Co    0.46995   0.46995   0.55995   0.00000  Uiso   1.00
Co15   Co    0.46995   0.46995   0.44005   0.00000  Uiso   1.00
Co16   Co    0.53005   0.46995   0.55995   0.00000  Uiso   1.00
Co17   Co    0.46995   0.53005   0.55995   0.00000  Uiso   1.00
Co18   Co    0.53005   0.46995   0.44005   0.00000  Uiso   1.00
Co19   Co    0.46995   0.53005   0.44005   0.00000  Uiso   1.00
Co20   Co    0.53005   0.53005   0.55995   0.00000  Uiso   1.00
Co21   Co    0.53005   0.53005   0.44005   0.00000  Uiso   1.00
Co22   Co    0.46995   0.43991   0.52998   0.00000  Uiso   1.00
Co23   Co    0.43991   0.46995   0.52998   0.00000  Uiso   1.00
Co24   Co    0.46995   0.43991   0.47002   0.00000  Uiso   1.00
Co25   Co    0.56009   0.46995   0.52998   0.00000  Uiso   1.00
Co26   Co    0.43991   0.46995   0.47002   0.00000  Uiso   1.00
Co27   Co    0.46995   0.56009   0.52998   0.00000  Uiso   1.00
Co28   Co    0.56009   0.46995   0.47002   0.00000  Uiso   1.00
Co29   Co    0.46995   0.56009   0.47002   0.00000  Uiso   1.00
Co30   Co    0.53005   0.43991   0.52998   0.00000  Uiso   1.00
Co31   Co    0.43991   0.53005   0.52998   0.00000  Uiso   1.00
Co32   Co    0.53005   0.43991   0.47002   0.00000  Uiso   1.00
Co33   Co    0.43991   0.53005   0.47002   0.00000  Uiso   1.00
Co34   Co    0.56009   0.53005   0.52998   0.00000  Uiso   1.00
Co35   Co    0.56009   0.53005   0.47002   0.00000  Uiso   1.00
Co36   Co    0.53005   0.56009   0.52998   0.00000  Uiso   1.00
Co37   Co    0.53005   0.56009   0.47002   0.00000  Uiso   1.00
Co38   Co    0.43991   0.43991   0.50000   0.00000  Uiso   1.00
Co39   Co    0.56009   0.43991   0.50000   0.00000  Uiso   1.00
Co40   Co    0.43991   0.56009   0.50000   0.00000  Uiso   1.00
Co41   Co    0.56009   0.56009   0.50000   0.00000  Uiso   1.00
Co42   Co    0.50000   0.46995   0.58993   0.00000  Uiso   1.00
Co43   Co    0.46995   0.50000   0.58993   0.00000  Uiso   1.00
Co44   Co    0.50000   0.46995   0.41007   0.00000  Uiso   1.00
Co45   Co    0.46995   0.50000   0.41007   0.00000  Uiso   1.00
Co46   Co    0.50000   0.53005   0.58993   0.00000  Uiso   1.00
Co47   Co    0.53005   0.50000   0.58993   0.00000  Uiso   1.00
Co48   Co    0.53005   0.50000   0.41007   0.00000  Uiso   1.00
Co49   Co    0.50000   0.53005   0.41007   0.00000  Uiso   1.00
Co50   Co    0.40986   0.50000   0.52998   0.00000  Uiso   1.00
Co51   Co    0.50000   0.40986   0.52998   0.00000  Uiso   1.00
Co52   Co    0.50000   0.40986   0.47002   0.00000  Uiso   1.00
Co53   Co    0.40986   0.50000   0.47002   0.00000  Uiso   1.00
Co54   Co    0.59014   0.50000   0.52998   0.00000  Uiso   1.00
Co55   Co    0.59014   0.50000   0.47002   0.00000  Uiso   1.00
Co56   Co    0.50000   0.59014   0.52998   0.00000  Uiso   1.00
Co57   Co    0.50000   0.59014   0.47002   0.00000  Uiso   1.00
Co58   Co    0.46995   0.43991   0.58993   0.00000  Uiso   1.00
Co59   Co    0.43991   0.46995   0.58993   0.00000  Uiso   1.00
Co60   Co    0.56009   0.46995   0.58993   0.00000  Uiso   1.00
Co61   Co    0.46995   0.56009   0.58993   0.00000  Uiso   1.00
Co62   Co    0.46995   0.43991   0.41007   0.00000  Uiso   1.00
Co63   Co    0.43991   0.46995   0.41007   0.00000  Uiso   1.00
Co64   Co    0.56009   0.46995   0.41007   0.00000  Uiso   1.00
Co65   Co    0.46995   0.56009   0.41007   0.00000  Uiso   1.00
Co66   Co    0.53005   0.43991   0.58993   0.00000  Uiso   1.00
Co67   Co    0.43991   0.53005   0.58993   0.00000  Uiso   1.00
Co68   Co    0.56009   0.53005   0.41007   0.00000  Uiso   1.00
Co69   Co    0.56009   0.53005   0.58993   0.00000  Uiso   1.00
Co70   Co    0.53005   0.56009   0.41007   0.00000  Uiso   1.00
Co71   Co    0.53005   0.56009   0.58993   0.00000  Uiso   1.00
Co72   Co    0.53005   0.43991   0.41007   0.00000  Uiso   1.00
Co73   Co    0.43991   0.53005   0.41007   0.00000  Uiso   1.00
Co74   Co    0.46995   0.40986   0.55995   0.00000  Uiso   1.00
Co75   Co    0.40986   0.46995   0.55995   0.00000  Uiso   1.00
Co76   Co    0.46995   0.40986   0.44005   0.00000  Uiso   1.00
Co77   Co    0.40986   0.46995   0.44005   0.00000  Uiso   1.00
Co78   Co    0.53005   0.40986   0.55995   0.00000  Uiso   1.00
Co79   Co    0.40986   0.53005   0.55995   0.00000  Uiso   1.00
Co80   Co    0.53005   0.40986   0.44005   0.00000  Uiso   1.00
Co81   Co    0.40986   0.53005   0.44005   0.00000  Uiso   1.00
Co82   Co    0.59014   0.46995   0.55995   0.00000  Uiso   1.00
Co83   Co    0.46995   0.59014   0.55995   0.00000  Uiso   1.00
Co84   Co    0.59014   0.46995   0.44005   0.00000  Uiso   1.00
Co85   Co    0.46995   0.59014   0.44005   0.00000  Uiso   1.00
Co86   Co    0.59014   0.53005   0.55995   0.00000  Uiso   1.00
Co87   Co    0.53005   0.59014   0.55995   0.00000  Uiso   1.00
Co88   Co    0.59014   0.53005   0.44005   0.00000  Uiso   1.00
Co89   Co    0.53005   0.59014   0.44005   0.00000  Uiso   1.00
Co90   Co    0.43991   0.40986   0.52998   0.00000  Uiso   1.00
Co91   Co    0.40986   0.43991   0.52998   0.00000  Uiso   1.00
Co92   Co    0.56009   0.40986   0.52998   0.00000  Uiso   1.00
Co93   Co    0.43991   0.40986   0.47002   0.00000  Uiso   1.00
Co94   Co    0.40986   0.43991   0.47002   0.00000  Uiso   1.00
Co95   Co    0.40986   0.56009   0.52998   0.00000  Uiso   1.00
Co96   Co    0.56009   0.40986   0.47002   0.00000  Uiso   1.00
Co97   Co    0.40986   0.56009   0.47002   0.00000  Uiso   1.00
Co98   Co    0.59014   0.43991   0.52998   0.00000  Uiso   1.00
Co99   Co    0.43991   0.59014   0.52998   0.00000  Uiso   1.00
Co100  Co    0.59014   0.43991   0.47002   0.00000  Uiso   1.00
Co101  Co    0.43991   0.59014   0.47002   0.00000  Uiso   1.00
Co102  Co    0.59014   0.56009   0.52998   0.00000  Uiso   1.00
Co103  Co    0.56009   0.59014   0.52998   0.00000  Uiso   1.00
Co104  Co    0.59014   0.56009   0.47002   0.00000  Uiso   1.00
Co105  Co    0.56009   0.59014   0.47002   0.00000  Uiso   1.00
Co106  Co    0.50000   0.50000   0.61990   0.00000  Uiso   1.00
Co107  Co    0.50000   0.50000   0.38010   0.00000  Uiso   1.00
Co108  Co    0.50000   0.37982   0.50000   0.00000  Uiso   1.00
Co109  Co    0.62018   0.50000   0.50000   0.00000  Uiso   1.00
Co110  Co    0.37982   0.50000   0.50000   0.00000  Uiso   1.00
Co111  Co    0.50000   0.62018   0.50000   0.00000  Uiso   1.00
Co112  Co    0.50000   0.40986   0.58993   0.00000  Uiso   1.00
Co113  Co    0.40986   0.50000   0.58993   0.00000  Uiso   1.00
Co114  Co    0.50000   0.40986   0.41007   0.00000  Uiso   1.00
Co115  Co    0.40986   0.50000   0.41007   0.00000  Uiso   1.00
Co116  Co    0.59014   0.50000   0.41007   0.00000  Uiso   1.00
Co117  Co    0.59014   0.50000   0.58993   0.00000  Uiso   1.00
Co118  Co    0.50000   0.59014   0.41007   0.00000  Uiso   1.00
Co119  Co    0.50000   0.59014   0.58993   0.00000  Uiso   1.00
Co120  Co    0.46995   0.37982   0.52998   0.00000  Uiso   1.00
Co121  Co    0.46995   0.37982   0.47002   0.00000  Uiso   1.00
Co122  Co    0.62018   0.46995   0.52998   0.00000  Uiso   1.00
Co123  Co    0.62018   0.46995   0.47002   0.00000  Uiso   1.00
Co124  Co    0.46995   0.62018   0.52998   0.00000  Uiso   1.00
Co125  Co    0.46995   0.62018   0.47002   0.00000  Uiso   1.00
Co126  Co    0.37982   0.46995   0.52998   0.00000  Uiso   1.00
Co127  Co    0.37982   0.46995   0.47002   0.00000  Uiso   1.00
Co128  Co    0.53005   0.37982   0.52998   0.00000  Uiso   1.00
Co129  Co    0.53005   0.37982   0.47002   0.00000  Uiso   1.00
Co130  Co    0.62018   0.53005   0.52998   0.00000  Uiso   1.00
Co131  Co    0.62018   0.53005   0.47002   0.00000  Uiso   1.00
Co132  Co    0.53005   0.62018   0.52998   0.00000  Uiso   1.00
Co133  Co    0.37982   0.53005   0.52998   0.00000  Uiso   1.00
Co134  Co    0.53005   0.62018   0.47002   0.00000  Uiso   1.00
Co135  Co    0.37982   0.53005   0.47002   0.00000  Uiso   1.00
Co136  Co    0.50000   0.43991   0.61990   0.00000  Uiso   1.00
Co137  Co    0.43991   0.50000   0.61990   0.00000  Uiso   1.00
Co138  Co    0.43991   0.50000   0.38010   0.00000  Uiso   1.00
Co139  Co    0.50000   0.43991   0.38010   0.00000  Uiso   1.00
Co140  Co    0.56009   0.50000   0.38010   0.00000  Uiso   1.00
Co141  Co    0.56009   0.50000   0.61990   0.00000  Uiso   1.00
Co142  Co    0.50000   0.56009   0.38010   0.00000  Uiso   1.00
Co143  Co    0.50000   0.56009   0.61990   0.00000  Uiso   1.00
Co144  Co    0.43991   0.37982   0.50000   0.00000  Uiso   1.00
Co145  Co    0.62018   0.43991   0.50000   0.00000  Uiso   1.00
Co146  Co    0.56009   0.37982   0.50000   0.00000  Uiso   1.00
Co147  Co    0.43991   0.62018   0.50000   0.00000  Uiso   1.00
Co148  Co    0.56009   0.62018   0.50000   0.00000  Uiso   1.00
Co149  Co    0.62018   0.56009   0.50000   0.00000  Uiso   1.00
Co150  Co    0.37982   0.43991   0.50000   0.00000  Uiso   1.00
Co151  Co    0.37982   0.56009   0.50000   0.00000  Uiso   1.00
Co152  Co    0.43991   0.40986   0.58993   0.00000  Uiso   1.00
Co153  Co    0.40986   0.43991   0.58993   0.00000  Uiso   1.00
Co154  Co    0.56009   0.40986   0.58993   0.00000  Uiso   1.00
Co155  Co    0.40986   0.56009   0.58993   0.00000  Uiso   1.00
Co156  Co    0.43991   0.40986   0.41007   0.00000  Uiso   1.00
Co157  Co    0.40986   0.43991   0.41007   0.00000  Uiso   1.00
Co158  Co    0.56009   0.40986   0.41007   0.00000  Uiso   1.00
Co159  Co    0.40986   0.56009   0.41007   0.00000  Uiso   1.00
Co160  Co    0.59014   0.43991   0.58993   0.00000  Uiso   1.00
Co161  Co    0.43991   0.59014   0.58993   0.00000  Uiso   1.00
Co162  Co    0.56009   0.59014   0.41007   0.00000  Uiso   1.00
Co163  Co    0.56009   0.59014   0.58993   0.00000  Uiso   1.00
Co164  Co    0.59014   0.56009   0.58993   0.00000  Uiso   1.00
Co165  Co    0.59014   0.56009   0.41007   0.00000  Uiso   1.00
Co166  Co    0.59014   0.43991   0.41007   0.00000  Uiso   1.00
Co167  Co    0.43991   0.59014   0.41007   0.00000  Uiso   1.00
Co168  Co    0.40986   0.40986   0.55995   0.00000  Uiso   1.00
Co169  Co    0.40986   0.40986   0.44005   0.00000  Uiso   1.00
Co170  Co    0.59014   0.40986   0.55995   0.00000  Uiso   1.00
Co171  Co    0.40986   0.59014   0.55995   0.00000  Uiso   1.00
Co172  Co    0.59014   0.40986   0.44005   0.00000  Uiso   1.00
Co173  Co    0.40986   0.59014   0.44005   0.00000  Uiso   1.00
Co174  Co    0.59014   0.59014   0.55995   0.00000  Uiso   1.00
Co175  Co    0.59014   0.59014   0.44005   0.00000  Uiso   1.00
Co176  Co    0.43991   0.43991   0.61990   0.00000  Uiso   1.00
Co177  Co    0.56009   0.43991   0.61990   0.00000  Uiso   1.00
Co178  Co    0.43991   0.56009   0.61990   0.00000  Uiso   1.00
Co179  Co    0.43991   0.43991   0.38010   0.00000  Uiso   1.00
Co180  Co    0.56009   0.43991   0.38010   0.00000  Uiso   1.00
Co181  Co    0.56009   0.56009   0.38010   0.00000  Uiso   1.00
Co182  Co    0.43991   0.56009   0.38010   0.00000  Uiso   1.00
Co183  Co    0.56009   0.56009   0.61990   0.00000  Uiso   1.00
Co184  Co    0.46995   0.50000   0.64988   0.00000  Uiso   1.00
Co185  Co    0.50000   0.46995   0.64988   0.00000  Uiso   1.00
Co186  Co    0.50000   0.46995   0.35012   0.00000  Uiso   1.00
Co187  Co    0.46995   0.50000   0.35012   0.00000  Uiso   1.00
Co188  Co    0.50000   0.53005   0.64988   0.00000  Uiso   1.00
Co189  Co    0.53005   0.50000   0.35012   0.00000  Uiso   1.00
Co190  Co    0.50000   0.53005   0.35012   0.00000  Uiso   1.00
Co191  Co    0.53005   0.50000   0.64988   0.00000  Uiso   1.00
Co192  Co    0.46995   0.37982   0.58993   0.00000  Uiso   1.00
Co193  Co    0.62018   0.46995   0.41007   0.00000  Uiso   1.00
Co194  Co    0.62018   0.46995   0.58993   0.00000  Uiso   1.00
Co195  Co    0.46995   0.62018   0.58993   0.00000  Uiso   1.00
Co196  Co    0.46995   0.62018   0.41007   0.00000  Uiso   1.00
Co197  Co    0.37982   0.46995   0.58993   0.00000  Uiso   1.00
Co198  Co    0.46995   0.37982   0.41007   0.00000  Uiso   1.00
Co199  Co    0.37982   0.46995   0.41007   0.00000  Uiso   1.00
Co200  Co    0.53005   0.37982   0.58993   0.00000  Uiso   1.00
Co201  Co    0.62018   0.53005   0.58993   0.00000  Uiso   1.00
Co202  Co    0.62018   0.53005   0.41007   0.00000  Uiso   1.00
Co203  Co    0.53005   0.62018   0.58993   0.00000  Uiso   1.00
Co204  Co    0.37982   0.53005   0.58993   0.00000  Uiso   1.00
Co205  Co    0.53005   0.62018   0.41007   0.00000  Uiso   1.00
Co206  Co    0.53005   0.37982   0.41007   0.00000  Uiso   1.00
Co207  Co    0.37982   0.53005   0.41007   0.00000  Uiso   1.00
Co208  Co    0.50000   0.34977   0.52998   0.00000  Uiso   1.00
Co209  Co    0.50000   0.34977   0.47002   0.00000  Uiso   1.00
Co210  Co    0.34977   0.50000   0.52998   0.00000  Uiso   1.00
Co211  Co    0.34977   0.50000   0.47002   0.00000  Uiso   1.00
Co212  Co    0.40986   0.37982   0.52998   0.00000  Uiso   1.00
Co213  Co    0.62018   0.40986   0.52998   0.00000  Uiso   1.00
Co214  Co    0.40986   0.37982   0.47002   0.00000  Uiso   1.00
Co215  Co    0.62018   0.40986   0.47002   0.00000  Uiso   1.00
Co216  Co    0.37982   0.40986   0.52998   0.00000  Uiso   1.00
Co217  Co    0.40986   0.62018   0.52998   0.00000  Uiso   1.00
Co218  Co    0.40986   0.62018   0.47002   0.00000  Uiso   1.00
Co219  Co    0.37982   0.40986   0.47002   0.00000  Uiso   1.00
Co220  Co    0.59014   0.37982   0.52998   0.00000  Uiso   1.00
Co221  Co    0.59014   0.37982   0.47002   0.00000  Uiso   1.00
Co222  Co    0.59014   0.62018   0.47002   0.00000  Uiso   1.00
Co223  Co    0.59014   0.62018   0.52998   0.00000  Uiso   1.00
Co224  Co    0.62018   0.59014   0.52998   0.00000  Uiso   1.00
Co225  Co    0.62018   0.59014   0.47002   0.00000  Uiso   1.00
Co226  Co    0.37982   0.59014   0.52998   0.00000  Uiso   1.00
Co227  Co    0.37982   0.59014   0.47002   0.00000  Uiso   1.00
Co228  Co    0.65023   0.50000   0.52998   0.00000  Uiso   1.00
Co229  Co    0.65023   0.50000   0.47002   0.00000  Uiso   1.00
Co230  Co    0.50000   0.65023   0.52998   0.00000  Uiso   1.00
Co231  Co    0.50000   0.65023   0.47002   0.00000  Uiso   1.00
Co232  Co    0.46995   0.43991   0.64988   0.00000  Uiso   1.00
Co233  Co    0.43991   0.46995   0.64988   0.00000  Uiso   1.00
Co234  Co    0.46995   0.43991   0.35012   0.00000  Uiso   1.00
Co235  Co    0.43991   0.46995   0.35012   0.00000  Uiso   1.00
Co236  Co    0.56009   0.46995   0.64988   0.00000  Uiso   1.00
Co237  Co    0.46995   0.56009   0.35012   0.00000  Uiso   1.00
Co238  Co    0.56009   0.46995   0.35012   0.00000  Uiso   1.00
Co239  Co    0.46995   0.56009   0.64988   0.00000  Uiso   1.00
Co240  Co    0.53005   0.43991   0.64988   0.00000  Uiso   1.00
Co241  Co    0.43991   0.53005   0.64988   0.00000  Uiso   1.00
Co242  Co    0.43991   0.53005   0.35012   0.00000  Uiso   1.00
Co243  Co    0.53005   0.43991   0.35012   0.00000  Uiso   1.00
Co244  Co    0.56009   0.53005   0.64988   0.00000  Uiso   1.00
Co245  Co    0.53005   0.56009   0.64988   0.00000  Uiso   1.00
Co246  Co    0.53005   0.56009   0.35012   0.00000  Uiso   1.00
Co247  Co    0.56009   0.53005   0.35012   0.00000  Uiso   1.00
Co248  Co    0.46995   0.34977   0.55995   0.00000  Uiso   1.00
Co249  Co    0.34977   0.46995   0.55995   0.00000  Uiso   1.00
Co250  Co    0.46995   0.34977   0.44005   0.00000  Uiso   1.00
Co251  Co    0.34977   0.46995   0.44005   0.00000  Uiso   1.00
Co252  Co    0.53005   0.34977   0.55995   0.00000  Uiso   1.00
Co253  Co    0.53005   0.34977   0.44005   0.00000  Uiso   1.00
Co254  Co    0.34977   0.53005   0.55995   0.00000  Uiso   1.00
Co255  Co    0.34977   0.53005   0.44005   0.00000  Uiso   1.00
Co256  Co    0.65023   0.46995   0.55995   0.00000  Uiso   1.00
Co257  Co    0.65023   0.46995   0.44005   0.00000  Uiso   1.00
Co258  Co    0.46995   0.65023   0.55995   0.00000  Uiso   1.00
Co259  Co    0.46995   0.65023   0.44005   0.00000  Uiso   1.00
Co260  Co    0.65023   0.53005   0.55995   0.00000  Uiso   1.00
Co261  Co    0.65023   0.53005   0.44005   0.00000  Uiso   1.00
Co262  Co    0.53005   0.65023   0.55995   0.00000  Uiso   1.00
Co263  Co    0.53005   0.65023   0.44005   0.00000  Uiso   1.00
Co264  Co    0.43991   0.34977   0.52998   0.00000  Uiso   1.00
Co265  Co    0.56009   0.34977   0.52998   0.00000  Uiso   1.00
Co266  Co    0.43991   0.34977   0.47002   0.00000  Uiso   1.00
Co267  Co    0.56009   0.34977   0.47002   0.00000  Uiso   1.00
Co268  Co    0.34977   0.43991   0.52998   0.00000  Uiso   1.00
Co269  Co    0.34977   0.43991   0.47002   0.00000  Uiso   1.00
Co270  Co    0.34977   0.56009   0.52998   0.00000  Uiso   1.00
Co271  Co    0.34977   0.56009   0.47002   0.00000  Uiso   1.00
Co272  Co    0.65023   0.43991   0.52998   0.00000  Uiso   1.00
Co273  Co    0.56009   0.65023   0.47002   0.00000  Uiso   1.00
Co274  Co    0.65023   0.43991   0.47002   0.00000  Uiso   1.00
Co275  Co    0.56009   0.65023   0.52998   0.00000  Uiso   1.00
Co276  Co    0.65023   0.56009   0.47002   0.00000  Uiso   1.00
Co277  Co    0.65023   0.56009   0.52998   0.00000  Uiso   1.00
Co278  Co    0.43991   0.65023   0.47002   0.00000  Uiso   1.00
Co279  Co    0.43991   0.65023   0.52998   0.00000  Uiso   1.00
Co280  Co    0.50000   0.37982   0.61990   0.00000  Uiso   1.00
Co281  Co    0.37982   0.50000   0.61990   0.00000  Uiso   1.00
Co282  Co    0.62018   0.50000   0.38010   0.00000  Uiso   1.00
Co283  Co    0.50000   0.62018   0.38010   0.00000  Uiso   1.00
Co284  Co    0.50000   0.37982   0.38010   0.00000  Uiso   1.00
Co285  Co    0.62018   0.50000   0.61990   0.00000  Uiso   1.00
Co286  Co    0.50000   0.62018   0.61990   0.00000  Uiso   1.00
Co287  Co    0.37982   0.50000   0.38010   0.00000  Uiso   1.00
Co288  Co    0.62018   0.37982   0.50000   0.00000  Uiso   1.00
Co289  Co    0.37982   0.37982   0.50000   0.00000  Uiso   1.00
Co290  Co    0.62018   0.62018   0.50000   0.00000  Uiso   1.00
Co291  Co    0.37982   0.62018   0.50000   0.00000  Uiso   1.00
Co292  Co    0.40986   0.50000   0.64988   0.00000  Uiso   1.00
Co293  Co    0.50000   0.40986   0.64988   0.00000  Uiso   1.00
Co294  Co    0.40986   0.50000   0.35012   0.00000  Uiso   1.00
Co295  Co    0.50000   0.40986   0.35012   0.00000  Uiso   1.00
Co296  Co    0.59014   0.50000   0.64988   0.00000  Uiso   1.00
Co297  Co    0.59014   0.50000   0.35012   0.00000  Uiso   1.00
Co298  Co    0.50000   0.59014   0.64988   0.00000  Uiso   1.00
Co299  Co    0.50000   0.59014   0.35012   0.00000  Uiso   1.00
Co300  Co    0.50000   0.34977   0.58993   0.00000  Uiso   1.00
Co301  Co    0.34977   0.50000   0.58993   0.00000  Uiso   1.00
Co302  Co    0.50000   0.34977   0.41007   0.00000  Uiso   1.00
Co303  Co    0.34977   0.50000   0.41007   0.00000  Uiso   1.00
Co304  Co    0.40986   0.37982   0.58993   0.00000  Uiso   1.00
Co305  Co    0.62018   0.40986   0.58993   0.00000  Uiso   1.00
Co306  Co    0.40986   0.37982   0.41007   0.00000  Uiso   1.00
Co307  Co    0.37982   0.40986   0.58993   0.00000  Uiso   1.00
Co308  Co    0.40986   0.62018   0.58993   0.00000  Uiso   1.00
Co309  Co    0.37982   0.40986   0.41007   0.00000  Uiso   1.00
Co310  Co    0.62018   0.40986   0.41007   0.00000  Uiso   1.00
Co311  Co    0.40986   0.62018   0.41007   0.00000  Uiso   1.00
Co312  Co    0.59014   0.37982   0.58993   0.00000  Uiso   1.00
Co313  Co    0.59014   0.62018   0.41007   0.00000  Uiso   1.00
Co314  Co    0.59014   0.62018   0.58993   0.00000  Uiso   1.00
Co315  Co    0.62018   0.59014   0.41007   0.00000  Uiso   1.00
Co316  Co    0.62018   0.59014   0.58993   0.00000  Uiso   1.00
Co317  Co    0.37982   0.59014   0.58993   0.00000  Uiso   1.00
Co318  Co    0.59014   0.37982   0.41007   0.00000  Uiso   1.00
Co319  Co    0.37982   0.59014   0.41007   0.00000  Uiso   1.00
Co320  Co    0.65023   0.50000   0.41007   0.00000  Uiso   1.00
Co321  Co    0.65023   0.50000   0.58993   0.00000  Uiso   1.00
Co322  Co    0.50000   0.65023   0.41007   0.00000  Uiso   1.00
Co323  Co    0.50000   0.65023   0.58993   0.00000  Uiso   1.00
Co324  Co    0.43991   0.37982   0.61990   0.00000  Uiso   1.00
Co325  Co    0.56009   0.37982   0.61990   0.00000  Uiso   1.00
Co326  Co    0.37982   0.43991   0.61990   0.00000  Uiso   1.00
Co327  Co    0.37982   0.56009   0.61990   0.00000  Uiso   1.00
Co328  Co    0.43991   0.37982   0.38010   0.00000  Uiso   1.00
Co329  Co    0.62018   0.56009   0.38010   0.00000  Uiso   1.00
Co330  Co    0.56009   0.37982   0.38010   0.00000  Uiso   1.00
Co331  Co    0.62018   0.43991   0.38010   0.00000  Uiso   1.00
Co332  Co    0.56009   0.62018   0.38010   0.00000  Uiso   1.00
Co333  Co    0.62018   0.43991   0.61990   0.00000  Uiso   1.00
Co334  Co    0.37982   0.43991   0.38010   0.00000  Uiso   1.00
Co335  Co    0.62018   0.56009   0.61990   0.00000  Uiso   1.00
Co336  Co    0.56009   0.62018   0.61990   0.00000  Uiso   1.00
Co337  Co    0.43991   0.62018   0.61990   0.00000  Uiso   1.00
Co338  Co    0.43991   0.62018   0.38010   0.00000  Uiso   1.00
Co339  Co    0.37982   0.56009   0.38010   0.00000  Uiso   1.00
Co340  Co    0.50000   0.31973   0.50000   0.00000  Uiso   1.00
Co341  Co    0.68027   0.50000   0.50000   0.00000  Uiso   1.00
Co342  Co    0.31973   0.50000   0.50000   0.00000  Uiso   1.00
Co343  Co    0.50000   0.68027   0.50000   0.00000  Uiso   1.00
Co344  Co    0.46995   0.46995   0.67985   0.00000  Uiso   1.00
Co345  Co    0.46995   0.46995   0.32015   0.00000  Uiso   1.00
Co346  Co    0.53005   0.46995   0.32015   0.00000  Uiso   1.00
Co347  Co    0.53005   0.46995   0.67985   0.00000  Uiso   1.00
Co348  Co    0.46995   0.53005   0.32015   0.00000  Uiso   1.00
Co349  Co    0.46995   0.53005   0.67985   0.00000  Uiso   1.00
Co350  Co    0.53005   0.53005   0.32015   0.00000  Uiso   1.00
Co351  Co    0.53005   0.53005   0.67985   0.00000  Uiso   1.00
Co352  Co    0.43991   0.40986   0.64988   0.00000  Uiso   1.00
Co353  Co    0.40986   0.43991   0.64988   0.00000  Uiso   1.00
Co354  Co    0.56009   0.40986   0.64988   0.00000  Uiso   1.00
Co355  Co    0.40986   0.56009   0.64988   0.00000  Uiso   1.00
Co356  Co    0.56009   0.40986   0.35012   0.00000  Uiso   1.00
Co357  Co    0.40986   0.56009   0.35012   0.00000  Uiso   1.00
Co358  Co    0.40986   0.43991   0.35012   0.00000  Uiso   1.00
Co359  Co    0.43991   0.40986   0.35012   0.00000  Uiso   1.00
Co360  Co    0.59014   0.43991   0.64988   0.00000  Uiso   1.00
Co361  Co    0.59014   0.43991   0.35012   0.00000  Uiso   1.00
Co362  Co    0.43991   0.59014   0.64988   0.00000  Uiso   1.00
Co363  Co    0.43991   0.59014   0.35012   0.00000  Uiso   1.00
Co364  Co    0.59014   0.56009   0.64988   0.00000  Uiso   1.00
Co365  Co    0.56009   0.59014   0.64988   0.00000  Uiso   1.00
Co366  Co    0.56009   0.59014   0.35012   0.00000  Uiso   1.00
Co367  Co    0.59014   0.56009   0.35012   0.00000  Uiso   1.00
Co368  Co    0.43991   0.34977   0.58993   0.00000  Uiso   1.00
Co369  Co    0.56009   0.34977   0.58993   0.00000  Uiso   1.00
Co370  Co    0.34977   0.43991   0.58993   0.00000  Uiso   1.00
Co371  Co    0.43991   0.34977   0.41007   0.00000  Uiso   1.00
Co372  Co    0.34977   0.56009   0.58993   0.00000  Uiso   1.00
Co373  Co    0.34977   0.43991   0.41007   0.00000  Uiso   1.00
Co374  Co    0.56009   0.34977   0.41007   0.00000  Uiso   1.00
Co375  Co    0.34977   0.56009   0.41007   0.00000  Uiso   1.00
Co376  Co    0.65023   0.43991   0.41007   0.00000  Uiso   1.00
Co377  Co    0.65023   0.43991   0.58993   0.00000  Uiso   1.00
Co378  Co    0.56009   0.65023   0.58993   0.00000  Uiso   1.00
Co379  Co    0.56009   0.65023   0.41007   0.00000  Uiso   1.00
Co380  Co    0.65023   0.56009   0.41007   0.00000  Uiso   1.00
Co381  Co    0.65023   0.56009   0.58993   0.00000  Uiso   1.00
Co382  Co    0.43991   0.65023   0.41007   0.00000  Uiso   1.00
Co383  Co    0.43991   0.65023   0.58993   0.00000  Uiso   1.00
Co384  Co    0.40986   0.34977   0.55995   0.00000  Uiso   1.00
Co385  Co    0.34977   0.40986   0.55995   0.00000  Uiso   1.00
Co386  Co    0.40986   0.34977   0.44005   0.00000  Uiso   1.00
Co387  Co    0.34977   0.40986   0.44005   0.00000  Uiso   1.00
Co388  Co    0.59014   0.34977   0.55995   0.00000  Uiso   1.00
Co389  Co    0.34977   0.59014   0.55995   0.00000  Uiso   1.00
Co390  Co    0.59014   0.34977   0.44005   0.00000  Uiso   1.00
Co391  Co    0.34977   0.59014   0.44005   0.00000  Uiso   1.00
Co392  Co    0.65023   0.40986   0.55995   0.00000  Uiso   1.00
Co393  Co    0.65023   0.40986   0.44005   0.00000  Uiso   1.00
Co394  Co    0.40986   0.65023   0.55995   0.00000  Uiso   1.00
Co395  Co    0.40986   0.65023   0.44005   0.00000  Uiso   1.00
Co396  Co    0.59014   0.65023   0.44005   0.00000  Uiso   1.00
Co397  Co    0.59014   0.65023   0.55995   0.00000  Uiso   1.00
Co398  Co    0.65023   0.59014   0.44005   0.00000  Uiso   1.00
Co399  Co    0.65023   0.59014   0.55995   0.00000  Uiso   1.00
Co400  Co    0.46995   0.31973   0.52998   0.00000  Uiso   1.00
Co401  Co    0.46995   0.31973   0.47002   0.00000  Uiso   1.00
Co402  Co    0.68027   0.46995   0.52998   0.00000  Uiso   1.00
Co403  Co    0.31973   0.46995   0.52998   0.00000  Uiso   1.00
Co404  Co    0.68027   0.46995   0.47002   0.00000  Uiso   1.00
Co405  Co    0.31973   0.46995   0.47002   0.00000  Uiso   1.00
Co406  Co    0.46995   0.68027   0.47002   0.00000  Uiso   1.00
Co407  Co    0.46995   0.68027   0.52998   0.00000  Uiso   1.00
Co408  Co    0.53005   0.31973   0.52998   0.00000  Uiso   1.00
Co409  Co    0.53005   0.31973   0.47002   0.00000  Uiso   1.00
Co410  Co    0.68027   0.53005   0.52998   0.00000  Uiso   1.00
Co411  Co    0.31973   0.53005   0.52998   0.00000  Uiso   1.00
Co412  Co    0.68027   0.53005   0.47002   0.00000  Uiso   1.00
Co413  Co    0.31973   0.53005   0.47002   0.00000  Uiso   1.00
Co414  Co    0.53005   0.68027   0.52998   0.00000  Uiso   1.00
Co415  Co    0.53005   0.68027   0.47002   0.00000  Uiso   1.00
Co416  Co    0.43991   0.31973   0.50000   0.00000  Uiso   1.00
Co417  Co    0.56009   0.31973   0.50000   0.00000  Uiso   1.00
Co418  Co    0.31973   0.43991   0.50000   0.00000  Uiso   1.00
Co419  Co    0.68027   0.43991   0.50000   0.00000  Uiso   1.00
Co420  Co    0.56009   0.68027   0.50000   0.00000  Uiso   1.00
Co421  Co    0.31973   0.56009   0.50000   0.00000  Uiso   1.00
Co422  Co    0.68027   0.56009   0.50000   0.00000  Uiso   1.00
Co423  Co    0.43991   0.68027   0.50000   0.00000  Uiso   1.00
Co424  Co    0.46995   0.37982   0.64988   0.00000  Uiso   1.00
Co425  Co    0.37982   0.46995   0.64988   0.00000  Uiso   1.00
Co426  Co    0.62018   0.46995   0.64988   0.00000  Uiso   1.00
Co427  Co    0.62018   0.46995   0.35012   0.00000  Uiso   1.00
Co428  Co    0.46995   0.62018   0.35012   0.00000  Uiso   1.00
Co429  Co    0.46995   0.62018   0.64988   0.00000  Uiso   1.00
Co430  Co    0.46995   0.37982   0.35012   0.00000  Uiso   1.00
Co431  Co    0.37982   0.46995   0.35012   0.00000  Uiso   1.00
Co432  Co    0.53005   0.37982   0.64988   0.00000  Uiso   1.00
Co433  Co    0.37982   0.53005   0.64988   0.00000  Uiso   1.00
Co434  Co    0.53005   0.37982   0.35012   0.00000  Uiso   1.00
Co435  Co    0.37982   0.53005   0.35012   0.00000  Uiso   1.00
Co436  Co    0.62018   0.53005   0.64988   0.00000  Uiso   1.00
Co437  Co    0.62018   0.53005   0.35012   0.00000  Uiso   1.00
Co438  Co    0.53005   0.62018   0.64988   0.00000  Uiso   1.00
Co439  Co    0.53005   0.62018   0.35012   0.00000  Uiso   1.00
Co440  Co    0.37982   0.34977   0.52998   0.00000  Uiso   1.00
Co441  Co    0.62018   0.34977   0.52998   0.00000  Uiso   1.00
Co442  Co    0.34977   0.37982   0.52998   0.00000  Uiso   1.00
Co443  Co    0.62018   0.34977   0.47002   0.00000  Uiso   1.00
Co444  Co    0.37982   0.34977   0.47002   0.00000  Uiso   1.00
Co445  Co    0.34977   0.62018   0.52998   0.00000  Uiso   1.00
Co446  Co    0.34977   0.37982   0.47002   0.00000  Uiso   1.00
Co447  Co    0.34977   0.62018   0.47002   0.00000  Uiso   1.00
Co448  Co    0.62018   0.65023   0.52998   0.00000  Uiso   1.00
Co449  Co    0.62018   0.65023   0.47002   0.00000  Uiso   1.00
Co450  Co    0.65023   0.37982   0.52998   0.00000  Uiso   1.00
Co451  Co    0.65023   0.37982   0.47002   0.00000  Uiso   1.00
Co452  Co    0.65023   0.62018   0.47002   0.00000  Uiso   1.00
Co453  Co    0.65023   0.62018   0.52998   0.00000  Uiso   1.00
Co454  Co    0.37982   0.65023   0.52998   0.00000  Uiso   1.00
Co455  Co    0.37982   0.65023   0.47002   0.00000  Uiso   1.00
Co456  Co    0.46995   0.40986   0.67985   0.00000  Uiso   1.00
Co457  Co    0.40986   0.46995   0.67985   0.00000  Uiso   1.00
Co458  Co    0.46995   0.40986   0.32015   0.00000  Uiso   1.00
Co459  Co    0.40986   0.46995   0.32015   0.00000  Uiso   1.00
Co460  Co    0.40986   0.53005   0.67985   0.00000  Uiso   1.00
Co461  Co    0.53005   0.40986   0.67985   0.00000  Uiso   1.00
Co462  Co    0.53005   0.40986   0.32015   0.00000  Uiso   1.00
Co463  Co    0.40986   0.53005   0.32015   0.00000  Uiso   1.00
Co464  Co    0.59014   0.46995   0.32015   0.00000  Uiso   1.00
Co465  Co    0.59014   0.46995   0.67985   0.00000  Uiso   1.00
Co466  Co    0.46995   0.59014   0.32015   0.00000  Uiso   1.00
Co467  Co    0.46995   0.59014   0.67985   0.00000  Uiso   1.00
Co468  Co    0.53005   0.59014   0.67985   0.00000  Uiso   1.00
Co469  Co    0.53005   0.59014   0.32015   0.00000  Uiso   1.00
Co470  Co    0.59014   0.53005   0.32015   0.00000  Uiso   1.00
Co471  Co    0.59014   0.53005   0.67985   0.00000  Uiso   1.00
Co472  Co    0.46995   0.31973   0.58993   0.00000  Uiso   1.00
Co473  Co    0.46995   0.31973   0.41007   0.00000  Uiso   1.00
Co474  Co    0.68027   0.46995   0.58993   0.00000  Uiso   1.00
Co475  Co    0.31973   0.46995   0.58993   0.00000  Uiso   1.00
Co476  Co    0.68027   0.46995   0.41007   0.00000  Uiso   1.00
Co477  Co    0.31973   0.46995   0.41007   0.00000  Uiso   1.00
Co478  Co    0.46995   0.68027   0.41007   0.00000  Uiso   1.00
Co479  Co    0.46995   0.68027   0.58993   0.00000  Uiso   1.00
Co480  Co    0.53005   0.31973   0.58993   0.00000  Uiso   1.00
Co481  Co    0.31973   0.53005   0.58993   0.00000  Uiso   1.00
Co482  Co    0.68027   0.53005   0.58993   0.00000  Uiso   1.00
Co483  Co    0.68027   0.53005   0.41007   0.00000  Uiso   1.00
Co484  Co    0.53005   0.31973   0.41007   0.00000  Uiso   1.00
Co485  Co    0.53005   0.68027   0.41007   0.00000  Uiso   1.00
Co486  Co    0.53005   0.68027   0.58993   0.00000  Uiso   1.00
Co487  Co    0.31973   0.53005   0.41007   0.00000  Uiso   1.00
Co488  Co    0.40986   0.31973   0.52998   0.00000  Uiso   1.00
Co489  Co    0.68027   0.40986   0.52998   0.00000  Uiso   1.00
Co490  Co    0.31973   0.40986   0.52998   0.00000  Uiso   1.00
Co491  Co    0.68027   0.40986   0.47002   0.00000  Uiso   1.00
Co492  Co    0.40986   0.31973   0.47002   0.00000  Uiso   1.00
Co493  Co    0.31973   0.40986   0.47002   0.00000  Uiso   1.00
Co494  Co    0.40986   0.68027   0.52998   0.00000  Uiso   1.00
Co495  Co    0.40986   0.68027   0.47002   0.00000  Uiso   1.00
Co496  Co    0.59014   0.31973   0.52998   0.00000  Uiso   1.00
Co497  Co    0.59014   0.31973   0.47002   0.00000  Uiso   1.00
Co498  Co    0.31973   0.59014   0.52998   0.00000  Uiso   1.00
Co499  Co    0.59014   0.68027   0.47002   0.00000  Uiso   1.00
Co500  Co    0.68027   0.59014   0.47002   0.00000  Uiso   1.00
Co501  Co    0.68027   0.59014   0.52998   0.00000  Uiso   1.00
Co502  Co    0.31973   0.59014   0.47002   0.00000  Uiso   1.00
Co503  Co    0.59014   0.68027   0.52998   0.00000  Uiso   1.00
Co504  Co    0.37982   0.37982   0.61990   0.00000  Uiso   1.00
Co505  Co    0.62018   0.37982   0.61990   0.00000  Uiso   1.00
Co506  Co    0.62018   0.62018   0.38010   0.00000  Uiso   1.00
Co507  Co    0.37982   0.37982   0.38010   0.00000  Uiso   1.00
Co508  Co    0.37982   0.62018   0.61990   0.00000  Uiso   1.00
Co509  Co    0.62018   0.37982   0.38010   0.00000  Uiso   1.00
Co510  Co    0.62018   0.62018   0.61990   0.00000  Uiso   1.00
Co511  Co    0.37982   0.62018   0.38010   0.00000  Uiso   1.00
Co512  Co    0.50000   0.46995   0.70983   0.00000  Uiso   1.00
Co513  Co    0.46995   0.50000   0.70983   0.00000  Uiso   1.00
Co514  Co    0.46995   0.50000   0.29017   0.00000  Uiso   1.00
Co515  Co    0.50000   0.46995   0.29017   0.00000  Uiso   1.00
Co516  Co    0.53005   0.50000   0.29017   0.00000  Uiso   1.00
Co517  Co    0.50000   0.53005   0.29017   0.00000  Uiso   1.00
Co518  Co    0.53005   0.50000   0.70983   0.00000  Uiso   1.00
Co519  Co    0.50000   0.53005   0.70983   0.00000  Uiso   1.00
Co520  Co    0.50000   0.34977   0.64988   0.00000  Uiso   1.00
Co521  Co    0.34977   0.50000   0.64988   0.00000  Uiso   1.00
Co522  Co    0.50000   0.34977   0.35012   0.00000  Uiso   1.00
Co523  Co    0.34977   0.50000   0.35012   0.00000  Uiso   1.00
Co524  Co    0.40986   0.37982   0.64988   0.00000  Uiso   1.00
Co525  Co    0.37982   0.40986   0.64988   0.00000  Uiso   1.00
Co526  Co    0.62018   0.40986   0.35012   0.00000  Uiso   1.00
Co527  Co    0.62018   0.40986   0.64988   0.00000  Uiso   1.00
Co528  Co    0.40986   0.37982   0.35012   0.00000  Uiso   1.00
Co529  Co    0.40986   0.62018   0.35012   0.00000  Uiso   1.00
Co530  Co    0.40986   0.62018   0.64988   0.00000  Uiso   1.00
Co531  Co    0.37982   0.40986   0.35012   0.00000  Uiso   1.00
Co532  Co    0.59014   0.37982   0.64988   0.00000  Uiso   1.00
Co533  Co    0.37982   0.59014   0.64988   0.00000  Uiso   1.00
Co534  Co    0.59014   0.37982   0.35012   0.00000  Uiso   1.00
Co535  Co    0.37982   0.59014   0.35012   0.00000  Uiso   1.00
Co536  Co    0.62018   0.59014   0.64988   0.00000  Uiso   1.00
Co537  Co    0.59014   0.62018   0.35012   0.00000  Uiso   1.00
Co538  Co    0.59014   0.62018   0.64988   0.00000  Uiso   1.00
Co539  Co    0.62018   0.59014   0.35012   0.00000  Uiso   1.00
Co540  Co    0.65023   0.50000   0.35012   0.00000  Uiso   1.00
Co541  Co    0.65023   0.50000   0.64988   0.00000  Uiso   1.00
Co542  Co    0.50000   0.65023   0.35012   0.00000  Uiso   1.00
Co543  Co    0.50000   0.65023   0.64988   0.00000  Uiso   1.00
Co544  Co    0.62018   0.34977   0.58993   0.00000  Uiso   1.00
Co545  Co    0.37982   0.34977   0.58993   0.00000  Uiso   1.00
Co546  Co    0.34977   0.37982   0.58993   0.00000  Uiso   1.00
Co547  Co    0.37982   0.34977   0.41007   0.00000  Uiso   1.00
Co548  Co    0.34977   0.62018   0.58993   0.00000  Uiso   1.00
Co549  Co    0.34977   0.37982   0.41007   0.00000  Uiso   1.00
Co550  Co    0.62018   0.34977   0.41007   0.00000  Uiso   1.00
Co551  Co    0.34977   0.62018   0.41007   0.00000  Uiso   1.00
Co552  Co    0.62018   0.65023   0.41007   0.00000  Uiso   1.00
Co553  Co    0.65023   0.37982   0.58993   0.00000  Uiso   1.00
Co554  Co    0.62018   0.65023   0.58993   0.00000  Uiso   1.00
Co555  Co    0.65023   0.62018   0.41007   0.00000  Uiso   1.00
Co556  Co    0.65023   0.37982   0.41007   0.00000  Uiso   1.00
Co557  Co    0.37982   0.65023   0.58993   0.00000  Uiso   1.00
Co558  Co    0.65023   0.62018   0.58993   0.00000  Uiso   1.00
Co559  Co    0.37982   0.65023   0.41007   0.00000  Uiso   1.00
Co560  Co    0.50000   0.28968   0.52998   0.00000  Uiso   1.00
Co561  Co    0.50000   0.28968   0.47002   0.00000  Uiso   1.00
Co562  Co    0.28968   0.50000   0.52998   0.00000  Uiso   1.00
Co563  Co    0.28968   0.50000   0.47002   0.00000  Uiso   1.00
Co564  Co    0.71032   0.50000   0.52998   0.00000  Uiso   1.00
Co565  Co    0.71032   0.50000   0.47002   0.00000  Uiso   1.00
Co566  Co    0.50000   0.71032   0.52998   0.00000  Uiso   1.00
Co567  Co    0.50000   0.71032   0.47002   0.00000  Uiso   1.00
Co568  Co    0.50000   0.31973   0.61990   0.00000  Uiso   1.00
Co569  Co    0.31973   0.50000   0.61990   0.00000  Uiso   1.00
Co570  Co    0.50000   0.31973   0.38010   0.00000  Uiso   1.00
Co571  Co    0.68027   0.50000   0.38010   0.00000  Uiso   1.00
Co572  Co    0.68027   0.50000   0.61990   0.00000  Uiso   1.00
Co573  Co    0.50000   0.68027   0.38010   0.00000  Uiso   1.00
Co574  Co    0.31973   0.50000   0.38010   0.00000  Uiso   1.00
Co575  Co    0.50000   0.68027   0.61990   0.00000  Uiso   1.00
Co576  Co    0.37982   0.31973   0.50000   0.00000  Uiso   1.00
Co577  Co    0.62018   0.31973   0.50000   0.00000  Uiso   1.00
Co578  Co    0.62018   0.68027   0.50000   0.00000  Uiso   1.00
Co579  Co    0.68027   0.37982   0.50000   0.00000  Uiso   1.00
Co580  Co    0.31973   0.37982   0.50000   0.00000  Uiso   1.00
Co581  Co    0.31973   0.62018   0.50000   0.00000  Uiso   1.00
Co582  Co    0.68027   0.62018   0.50000   0.00000  Uiso   1.00
Co583  Co    0.37982   0.68027   0.50000   0.00000  Uiso   1.00
Co584  Co    0.43991   0.46995   0.70983   0.00000  Uiso   1.00
Co585  Co    0.46995   0.43991   0.70983   0.00000  Uiso   1.00
Co586  Co    0.46995   0.43991   0.29017   0.00000  Uiso   1.00
Co587  Co    0.43991   0.46995   0.29017   0.00000  Uiso   1.00
Co588  Co    0.46995   0.56009   0.29017   0.00000  Uiso   1.00
Co589  Co    0.56009   0.46995   0.29017   0.00000  Uiso   1.00
Co590  Co    0.56009   0.46995   0.70983   0.00000  Uiso   1.00
Co591  Co    0.46995   0.56009   0.70983   0.00000  Uiso   1.00
Co592  Co    0.53005   0.43991   0.70983   0.00000  Uiso   1.00
Co593  Co    0.43991   0.53005   0.70983   0.00000  Uiso   1.00
Co594  Co    0.53005   0.43991   0.29017   0.00000  Uiso   1.00
Co595  Co    0.43991   0.53005   0.29017   0.00000  Uiso   1.00
Co596  Co    0.53005   0.56009   0.29017   0.00000  Uiso   1.00
Co597  Co    0.56009   0.53005   0.29017   0.00000  Uiso   1.00
Co598  Co    0.56009   0.53005   0.70983   0.00000  Uiso   1.00
Co599  Co    0.53005   0.56009   0.70983   0.00000  Uiso   1.00
Co600  Co    0.40986   0.40986   0.67985   0.00000  Uiso   1.00
Co601  Co    0.40986   0.40986   0.32015   0.00000  Uiso   1.00
Co602  Co    0.59014   0.40986   0.67985   0.00000  Uiso   1.00
Co603  Co    0.59014   0.40986   0.32015   0.00000  Uiso   1.00
Co604  Co    0.40986   0.59014   0.67985   0.00000  Uiso   1.00
Co605  Co    0.40986   0.59014   0.32015   0.00000  Uiso   1.00
Co606  Co    0.59014   0.59014   0.67985   0.00000  Uiso   1.00
Co607  Co    0.59014   0.59014   0.32015   0.00000  Uiso   1.00
Co608  Co    0.43991   0.34977   0.64988   0.00000  Uiso   1.00
Co609  Co    0.56009   0.34977   0.64988   0.00000  Uiso   1.00
Co610  Co    0.34977   0.43991   0.64988   0.00000  Uiso   1.00
Co611  Co    0.34977   0.56009   0.64988   0.00000  Uiso   1.00
Co612  Co    0.56009   0.34977   0.35012   0.00000  Uiso   1.00
Co613  Co    0.34977   0.56009   0.35012   0.00000  Uiso   1.00
Co614  Co    0.43991   0.34977   0.35012   0.00000  Uiso   1.00
Co615  Co    0.34977   0.43991   0.35012   0.00000  Uiso   1.00
Co616  Co    0.65023   0.43991   0.64988   0.00000  Uiso   1.00
Co617  Co    0.65023   0.43991   0.35012   0.00000  Uiso   1.00
Co618  Co    0.56009   0.65023   0.35012   0.00000  Uiso   1.00
Co619  Co    0.56009   0.65023   0.64988   0.00000  Uiso   1.00
Co620  Co    0.65023   0.56009   0.64988   0.00000  Uiso   1.00
Co621  Co    0.65023   0.56009   0.35012   0.00000  Uiso   1.00
Co622  Co    0.43991   0.65023   0.64988   0.00000  Uiso   1.00
Co623  Co    0.43991   0.65023   0.35012   0.00000  Uiso   1.00
Co624  Co    0.40986   0.31973   0.58993   0.00000  Uiso   1.00
Co625  Co    0.31973   0.40986   0.58993   0.00000  Uiso   1.00
Co626  Co    0.68027   0.40986   0.58993   0.00000  Uiso   1.00
Co627  Co    0.68027   0.40986   0.41007   0.00000  Uiso   1.00
Co628  Co    0.40986   0.31973   0.41007   0.00000  Uiso   1.00
Co629  Co    0.31973   0.40986   0.41007   0.00000  Uiso   1.00
Co630  Co    0.40986   0.68027   0.58993   0.00000  Uiso   1.00
Co631  Co    0.40986   0.68027   0.41007   0.00000  Uiso   1.00
Co632  Co    0.59014   0.31973   0.58993   0.00000  Uiso   1.00
Co633  Co    0.59014   0.31973   0.41007   0.00000  Uiso   1.00
Co634  Co    0.31973   0.59014   0.58993   0.00000  Uiso   1.00
Co635  Co    0.59014   0.68027   0.41007   0.00000  Uiso   1.00
Co636  Co    0.68027   0.59014   0.41007   0.00000  Uiso   1.00
Co637  Co    0.68027   0.59014   0.58993   0.00000  Uiso   1.00
Co638  Co    0.59014   0.68027   0.58993   0.00000  Uiso   1.00
Co639  Co    0.31973   0.59014   0.41007   0.00000  Uiso   1.00
Co640  Co    0.34977   0.34977   0.55995   0.00000  Uiso   1.00
Co641  Co    0.34977   0.34977   0.44005   0.00000  Uiso   1.00
Co642  Co    0.46995   0.28968   0.55995   0.00000  Uiso   1.00
Co643  Co    0.46995   0.28968   0.44005   0.00000  Uiso   1.00
Co644  Co    0.28968   0.46995   0.55995   0.00000  Uiso   1.00
Co645  Co    0.28968   0.46995   0.44005   0.00000  Uiso   1.00
Co646  Co    0.53005   0.28968   0.55995   0.00000  Uiso   1.00
Co647  Co    0.53005   0.28968   0.44005   0.00000  Uiso   1.00
Co648  Co    0.28968   0.53005   0.55995   0.00000  Uiso   1.00
Co649  Co    0.28968   0.53005   0.44005   0.00000  Uiso   1.00
Co650  Co    0.65023   0.34977   0.55995   0.00000  Uiso   1.00
Co651  Co    0.34977   0.65023   0.55995   0.00000  Uiso   1.00
Co652  Co    0.65023   0.34977   0.44005   0.00000  Uiso   1.00
Co653  Co    0.34977   0.65023   0.44005   0.00000  Uiso   1.00
Co654  Co    0.71032   0.46995   0.55995   0.00000  Uiso   1.00
Co655  Co    0.71032   0.46995   0.44005   0.00000  Uiso   1.00
Co656  Co    0.46995   0.71032   0.55995   0.00000  Uiso   1.00
Co657  Co    0.46995   0.71032   0.44005   0.00000  Uiso   1.00
Co658  Co    0.71032   0.53005   0.44005   0.00000  Uiso   1.00
Co659  Co    0.53005   0.71032   0.44005   0.00000  Uiso   1.00
Co660  Co    0.71032   0.53005   0.55995   0.00000  Uiso   1.00
Co661  Co    0.53005   0.71032   0.55995   0.00000  Uiso   1.00
Co662  Co    0.65023   0.65023   0.44005   0.00000  Uiso   1.00
Co663  Co    0.65023   0.65023   0.55995   0.00000  Uiso   1.00
Co664  Co    0.43991   0.28968   0.52998   0.00000  Uiso   1.00
Co665  Co    0.56009   0.28968   0.52998   0.00000  Uiso   1.00
Co666  Co    0.43991   0.28968   0.47002   0.00000  Uiso   1.00
Co667  Co    0.56009   0.28968   0.47002   0.00000  Uiso   1.00
Co668  Co    0.28968   0.43991   0.52998   0.00000  Uiso   1.00
Co669  Co    0.28968   0.43991   0.47002   0.00000  Uiso   1.00
Co670  Co    0.28968   0.56009   0.52998   0.00000  Uiso   1.00
Co671  Co    0.28968   0.56009   0.47002   0.00000  Uiso   1.00
Co672  Co    0.71032   0.43991   0.52998   0.00000  Uiso   1.00
Co673  Co    0.71032   0.43991   0.47002   0.00000  Uiso   1.00
Co674  Co    0.56009   0.71032   0.47002   0.00000  Uiso   1.00
Co675  Co    0.56009   0.71032   0.52998   0.00000  Uiso   1.00
Co676  Co    0.71032   0.56009   0.47002   0.00000  Uiso   1.00
Co677  Co    0.71032   0.56009   0.52998   0.00000  Uiso   1.00
Co678  Co    0.43991   0.71032   0.52998   0.00000  Uiso   1.00
Co679  Co    0.43991   0.71032   0.47002   0.00000  Uiso   1.00
Co680  Co    0.43991   0.31973   0.61990   0.00000  Uiso   1.00
Co681  Co    0.31973   0.43991   0.61990   0.00000  Uiso   1.00
Co682  Co    0.56009   0.31973   0.61990   0.00000  Uiso   1.00
Co683  Co    0.68027   0.43991   0.38010   0.00000  Uiso   1.00
Co684  Co    0.31973   0.56009   0.61990   0.00000  Uiso   1.00
Co685  Co    0.56009   0.68027   0.38010   0.00000  Uiso   1.00
Co686  Co    0.43991   0.31973   0.38010   0.00000  Uiso   1.00
Co687  Co    0.56009   0.31973   0.38010   0.00000  Uiso   1.00
Co688  Co    0.68027   0.56009   0.38010   0.00000  Uiso   1.00
Co689  Co    0.68027   0.43991   0.61990   0.00000  Uiso   1.00
Co690  Co    0.31973   0.43991   0.38010   0.00000  Uiso   1.00
Co691  Co    0.56009   0.68027   0.61990   0.00000  Uiso   1.00
Co692  Co    0.43991   0.68027   0.38010   0.00000  Uiso   1.00
Co693  Co    0.31973   0.56009   0.38010   0.00000  Uiso   1.00
Co694  Co    0.68027   0.56009   0.61990   0.00000  Uiso   1.00
Co695  Co    0.43991   0.68027   0.61990   0.00000  Uiso   1.00
Co696  Co    0.50000   0.40986   0.70983   0.00000  Uiso   1.00
Co697  Co    0.40986   0.50000   0.70983   0.00000  Uiso   1.00
Co698  Co    0.50000   0.40986   0.29017   0.00000  Uiso   1.00
Co699  Co    0.40986   0.50000   0.29017   0.00000  Uiso   1.00
Co700  Co    0.59014   0.50000   0.29017   0.00000  Uiso   1.00
Co701  Co    0.50000   0.59014   0.29017   0.00000  Uiso   1.00
Co702  Co    0.59014   0.50000   0.70983   0.00000  Uiso   1.00
Co703  Co    0.50000   0.59014   0.70983   0.00000  Uiso   1.00
Co704  Co    0.50000   0.28968   0.58993   0.00000  Uiso   1.00
Co705  Co    0.50000   0.28968   0.41007   0.00000  Uiso   1.00
Co706  Co    0.28968   0.50000   0.58993   0.00000  Uiso   1.00
Co707  Co    0.28968   0.50000   0.41007   0.00000  Uiso   1.00
Co708  Co    0.71032   0.50000   0.41007   0.00000  Uiso   1.00
Co709  Co    0.71032   0.50000   0.58993   0.00000  Uiso   1.00
Co710  Co    0.50000   0.71032   0.58993   0.00000  Uiso   1.00
Co711  Co    0.50000   0.71032   0.41007   0.00000  Uiso   1.00
Co712  Co    0.43991   0.40986   0.70983   0.00000  Uiso   1.00
Co713  Co    0.56009   0.40986   0.70983   0.00000  Uiso   1.00
Co714  Co    0.40986   0.43991   0.70983   0.00000  Uiso   1.00
Co715  Co    0.40986   0.56009   0.70983   0.00000  Uiso   1.00
Co716  Co    0.56009   0.40986   0.29017   0.00000  Uiso   1.00
Co717  Co    0.40986   0.56009   0.29017   0.00000  Uiso   1.00
Co718  Co    0.40986   0.43991   0.29017   0.00000  Uiso   1.00
Co719  Co    0.43991   0.40986   0.29017   0.00000  Uiso   1.00
Co720  Co    0.43991   0.59014   0.29017   0.00000  Uiso   1.00
Co721  Co    0.59014   0.43991   0.29017   0.00000  Uiso   1.00
Co722  Co    0.59014   0.56009   0.29017   0.00000  Uiso   1.00
Co723  Co    0.56009   0.59014   0.29017   0.00000  Uiso   1.00
Co724  Co    0.59014   0.43991   0.70983   0.00000  Uiso   1.00
Co725  Co    0.43991   0.59014   0.70983   0.00000  Uiso   1.00
Co726  Co    0.56009   0.59014   0.70983   0.00000  Uiso   1.00
Co727  Co    0.59014   0.56009   0.70983   0.00000  Uiso   1.00
Co728  Co    0.46995   0.34977   0.67985   0.00000  Uiso   1.00
Co729  Co    0.34977   0.46995   0.67985   0.00000  Uiso   1.00
Co730  Co    0.46995   0.34977   0.32015   0.00000  Uiso   1.00
Co731  Co    0.34977   0.46995   0.32015   0.00000  Uiso   1.00
Co732  Co    0.53005   0.34977   0.67985   0.00000  Uiso   1.00
Co733  Co    0.34977   0.53005   0.67985   0.00000  Uiso   1.00
Co734  Co    0.53005   0.34977   0.32015   0.00000  Uiso   1.00
Co735  Co    0.34977   0.53005   0.32015   0.00000  Uiso   1.00
Co736  Co    0.65023   0.46995   0.32015   0.00000  Uiso   1.00
Co737  Co    0.65023   0.46995   0.67985   0.00000  Uiso   1.00
Co738  Co    0.46995   0.65023   0.32015   0.00000  Uiso   1.00
Co739  Co    0.46995   0.65023   0.67985   0.00000  Uiso   1.00
Co740  Co    0.53005   0.65023   0.32015   0.00000  Uiso   1.00
Co741  Co    0.65023   0.53005   0.32015   0.00000  Uiso   1.00
Co742  Co    0.53005   0.65023   0.67985   0.00000  Uiso   1.00
Co743  Co    0.65023   0.53005   0.67985   0.00000  Uiso   1.00
Co744  Co    0.46995   0.31973   0.64988   0.00000  Uiso   1.00
Co745  Co    0.31973   0.46995   0.64988   0.00000  Uiso   1.00
Co746  Co    0.68027   0.46995   0.35012   0.00000  Uiso   1.00
Co747  Co    0.68027   0.46995   0.64988   0.00000  Uiso   1.00
Co748  Co    0.46995   0.31973   0.35012   0.00000  Uiso   1.00
Co749  Co    0.31973   0.46995   0.35012   0.00000  Uiso   1.00
Co750  Co    0.46995   0.68027   0.64988   0.00000  Uiso   1.00
Co751  Co    0.46995   0.68027   0.35012   0.00000  Uiso   1.00
Co752  Co    0.53005   0.31973   0.64988   0.00000  Uiso   1.00
Co753  Co    0.31973   0.53005   0.64988   0.00000  Uiso   1.00
Co754  Co    0.68027   0.53005   0.35012   0.00000  Uiso   1.00
Co755  Co    0.53005   0.31973   0.35012   0.00000  Uiso   1.00
Co756  Co    0.68027   0.53005   0.64988   0.00000  Uiso   1.00
Co757  Co    0.53005   0.68027   0.35012   0.00000  Uiso   1.00
Co758  Co    0.53005   0.68027   0.64988   0.00000  Uiso   1.00
Co759  Co    0.31973   0.53005   0.35012   0.00000  Uiso   1.00
Co760  Co    0.43991   0.28968   0.58993   0.00000  Uiso   1.00
Co761  Co    0.43991   0.28968   0.41007   0.00000  Uiso   1.00
Co762  Co    0.56009   0.28968   0.58993   0.00000  Uiso   1.00
Co763  Co    0.56009   0.28968   0.41007   0.00000  Uiso   1.00
Co764  Co    0.28968   0.43991   0.58993   0.00000  Uiso   1.00
Co765  Co    0.28968   0.43991   0.41007   0.00000  Uiso   1.00
Co766  Co    0.28968   0.56009   0.58993   0.00000  Uiso   1.00
Co767  Co    0.28968   0.56009   0.41007   0.00000  Uiso   1.00
Co768  Co    0.71032   0.43991   0.41007   0.00000  Uiso   1.00
Co769  Co    0.71032   0.43991   0.58993   0.00000  Uiso   1.00
Co770  Co    0.56009   0.71032   0.41007   0.00000  Uiso   1.00
Co771  Co    0.71032   0.56009   0.41007   0.00000  Uiso   1.00
Co772  Co    0.56009   0.71032   0.58993   0.00000  Uiso   1.00
Co773  Co    0.43991   0.71032   0.58993   0.00000  Uiso   1.00
Co774  Co    0.43991   0.71032   0.41007   0.00000  Uiso   1.00
Co775  Co    0.71032   0.56009   0.58993   0.00000  Uiso   1.00
Co776  Co    0.40986   0.28968   0.55995   0.00000  Uiso   1.00
Co777  Co    0.28968   0.40986   0.55995   0.00000  Uiso   1.00
Co778  Co    0.40986   0.28968   0.44005   0.00000  Uiso   1.00
Co779  Co    0.28968   0.40986   0.44005   0.00000  Uiso   1.00
Co780  Co    0.59014   0.28968   0.55995   0.00000  Uiso   1.00
Co781  Co    0.59014   0.28968   0.44005   0.00000  Uiso   1.00
Co782  Co    0.28968   0.59014   0.55995   0.00000  Uiso   1.00
Co783  Co    0.28968   0.59014   0.44005   0.00000  Uiso   1.00
Co784  Co    0.71032   0.40986   0.55995   0.00000  Uiso   1.00
Co785  Co    0.71032   0.40986   0.44005   0.00000  Uiso   1.00
Co786  Co    0.40986   0.71032   0.55995   0.00000  Uiso   1.00
Co787  Co    0.40986   0.71032   0.44005   0.00000  Uiso   1.00
Co788  Co    0.71032   0.59014   0.44005   0.00000  Uiso   1.00
Co789  Co    0.59014   0.71032   0.44005   0.00000  Uiso   1.00
Co790  Co    0.71032   0.59014   0.55995   0.00000  Uiso   1.00
Co791  Co    0.59014   0.71032   0.55995   0.00000  Uiso   1.00
Co792  Co    0.31973   0.34977   0.52998   0.00000  Uiso   1.00
Co793  Co    0.34977   0.31973   0.52998   0.00000  Uiso   1.00
Co794  Co    0.68027   0.34977   0.52998   0.00000  Uiso   1.00
Co795  Co    0.31973   0.34977   0.47002   0.00000  Uiso   1.00
Co796  Co    0.34977   0.31973   0.47002   0.00000  Uiso   1.00
Co797  Co    0.68027   0.34977   0.47002   0.00000  Uiso   1.00
Co798  Co    0.34977   0.68027   0.52998   0.00000  Uiso   1.00
Co799  Co    0.34977   0.68027   0.47002   0.00000  Uiso   1.00
Co800  Co    0.65023   0.31973   0.52998   0.00000  Uiso   1.00
Co801  Co    0.65023   0.31973   0.47002   0.00000  Uiso   1.00
Co802  Co    0.31973   0.65023   0.52998   0.00000  Uiso   1.00
Co803  Co    0.31973   0.65023   0.47002   0.00000  Uiso   1.00
Co804  Co    0.68027   0.65023   0.52998   0.00000  Uiso   1.00
Co805  Co    0.68027   0.65023   0.47002   0.00000  Uiso   1.00
Co806  Co    0.65023   0.68027   0.47002   0.00000  Uiso   1.00
Co807  Co    0.65023   0.68027   0.52998   0.00000  Uiso   1.00
Co808  Co    0.50000   0.50000   0.73981   0.00000  Uiso   1.00
Co809  Co    0.50000   0.50000   0.26019   0.00000  Uiso   1.00
Co810  Co    0.50000   0.25964   0.50000   0.00000  Uiso   1.00
Co811  Co    0.74036   0.50000   0.50000   0.00000  Uiso   1.00
Co812  Co    0.25964   0.50000   0.50000   0.00000  Uiso   1.00
Co813  Co    0.50000   0.74036   0.50000   0.00000  Uiso   1.00
Co814  Co    0.46995   0.37982   0.70983   0.00000  Uiso   1.00
Co815  Co    0.37982   0.46995   0.70983   0.00000  Uiso   1.00
Co816  Co    0.62018   0.46995   0.29017   0.00000  Uiso   1.00
Co817  Co    0.46995   0.62018   0.29017   0.00000  Uiso   1.00
Co818  Co    0.62018   0.46995   0.70983   0.00000  Uiso   1.00
Co819  Co    0.46995   0.62018   0.70983   0.00000  Uiso   1.00
Co820  Co    0.46995   0.37982   0.29017   0.00000  Uiso   1.00
Co821  Co    0.37982   0.46995   0.29017   0.00000  Uiso   1.00
Co822  Co    0.53005   0.37982   0.70983   0.00000  Uiso   1.00
Co823  Co    0.37982   0.53005   0.70983   0.00000  Uiso   1.00
Co824  Co    0.53005   0.37982   0.29017   0.00000  Uiso   1.00
Co825  Co    0.62018   0.53005   0.29017   0.00000  Uiso   1.00
Co826  Co    0.37982   0.53005   0.29017   0.00000  Uiso   1.00
Co827  Co    0.53005   0.62018   0.29017   0.00000  Uiso   1.00
Co828  Co    0.62018   0.53005   0.70983   0.00000  Uiso   1.00
Co829  Co    0.53005   0.62018   0.70983   0.00000  Uiso   1.00
Co830  Co    0.37982   0.34977   0.64988   0.00000  Uiso   1.00
Co831  Co    0.62018   0.34977   0.64988   0.00000  Uiso   1.00
Co832  Co    0.34977   0.37982   0.64988   0.00000  Uiso   1.00
Co833  Co    0.62018   0.34977   0.35012   0.00000  Uiso   1.00
Co834  Co    0.34977   0.62018   0.64988   0.00000  Uiso   1.00
Co835  Co    0.34977   0.62018   0.35012   0.00000  Uiso   1.00
Co836  Co    0.37982   0.34977   0.35012   0.00000  Uiso   1.00
Co837  Co    0.34977   0.37982   0.35012   0.00000  Uiso   1.00
Co838  Co    0.62018   0.65023   0.64988   0.00000  Uiso   1.00
Co839  Co    0.62018   0.65023   0.35012   0.00000  Uiso   1.00
Co840  Co    0.65023   0.37982   0.64988   0.00000  Uiso   1.00
Co841  Co    0.65023   0.37982   0.35012   0.00000  Uiso   1.00
Co842  Co    0.65023   0.62018   0.64988   0.00000  Uiso   1.00
Co843  Co    0.65023   0.62018   0.35012   0.00000  Uiso   1.00
Co844  Co    0.37982   0.65023   0.64988   0.00000  Uiso   1.00
Co845  Co    0.37982   0.65023   0.35012   0.00000  Uiso   1.00
Co846  Co    0.62018   0.28968   0.52998   0.00000  Uiso   1.00
Co847  Co    0.37982   0.28968   0.52998   0.00000  Uiso   1.00
Co848  Co    0.37982   0.28968   0.47002   0.00000  Uiso   1.00
Co849  Co    0.62018   0.28968   0.47002   0.00000  Uiso   1.00
Co850  Co    0.28968   0.37982   0.52998   0.00000  Uiso   1.00
Co851  Co    0.28968   0.37982   0.47002   0.00000  Uiso   1.00
Co852  Co    0.28968   0.62018   0.52998   0.00000  Uiso   1.00
Co853  Co    0.28968   0.62018   0.47002   0.00000  Uiso   1.00
Co854  Co    0.46995   0.25964   0.52998   0.00000  Uiso   1.00
Co855  Co    0.46995   0.25964   0.47002   0.00000  Uiso   1.00
Co856  Co    0.74036   0.46995   0.52998   0.00000  Uiso   1.00
Co857  Co    0.74036   0.46995   0.47002   0.00000  Uiso   1.00
Co858  Co    0.46995   0.74036   0.52998   0.00000  Uiso   1.00
Co859  Co    0.25964   0.46995   0.52998   0.00000  Uiso   1.00
Co860  Co    0.46995   0.74036   0.47002   0.00000  Uiso   1.00
Co861  Co    0.25964   0.46995   0.47002   0.00000  Uiso   1.00
Co862  Co    0.53005   0.25964   0.52998   0.00000  Uiso   1.00
Co863  Co    0.53005   0.25964   0.47002   0.00000  Uiso   1.00
Co864  Co    0.74036   0.53005   0.47002   0.00000  Uiso   1.00
Co865  Co    0.53005   0.74036   0.47002   0.00000  Uiso   1.00
Co866  Co    0.74036   0.53005   0.52998   0.00000  Uiso   1.00
Co867  Co    0.53005   0.74036   0.52998   0.00000  Uiso   1.00
Co868  Co    0.25964   0.53005   0.52998   0.00000  Uiso   1.00
Co869  Co    0.25964   0.53005   0.47002   0.00000  Uiso   1.00
Co870  Co    0.62018   0.71032   0.47002   0.00000  Uiso   1.00
Co871  Co    0.71032   0.37982   0.52998   0.00000  Uiso   1.00
Co872  Co    0.71032   0.37982   0.47002   0.00000  Uiso   1.00
Co873  Co    0.62018   0.71032   0.52998   0.00000  Uiso   1.00
Co874  Co    0.71032   0.62018   0.52998   0.00000  Uiso   1.00
Co875  Co    0.71032   0.62018   0.47002   0.00000  Uiso   1.00
Co876  Co    0.37982   0.71032   0.47002   0.00000  Uiso   1.00
Co877  Co    0.37982   0.71032   0.52998   0.00000  Uiso   1.00
Co878  Co    0.50000   0.43991   0.73981   0.00000  Uiso   1.00
Co879  Co    0.43991   0.50000   0.73981   0.00000  Uiso   1.00
Co880  Co    0.56009   0.50000   0.73981   0.00000  Uiso   1.00
Co881  Co    0.50000   0.56009   0.73981   0.00000  Uiso   1.00
Co882  Co    0.43991   0.50000   0.26019   0.00000  Uiso   1.00
Co883  Co    0.50000   0.43991   0.26019   0.00000  Uiso   1.00
Co884  Co    0.56009   0.50000   0.26019   0.00000  Uiso   1.00
Co885  Co    0.50000   0.56009   0.26019   0.00000  Uiso   1.00
Co886  Co    0.37982   0.31973   0.61990   0.00000  Uiso   1.00
Co887  Co    0.62018   0.31973   0.61990   0.00000  Uiso   1.00
Co888  Co    0.31973   0.37982   0.61990   0.00000  Uiso   1.00
Co889  Co    0.31973   0.62018   0.61990   0.00000  Uiso   1.00
Co890  Co    0.62018   0.68027   0.38010   0.00000  Uiso   1.00
Co891  Co    0.62018   0.31973   0.38010   0.00000  Uiso   1.00
Co892  Co    0.37982   0.31973   0.38010   0.00000  Uiso   1.00
Co893  Co    0.68027   0.37982   0.38010   0.00000  Uiso   1.00
Co894  Co    0.62018   0.68027   0.61990   0.00000  Uiso   1.00
Co895  Co    0.68027   0.37982   0.61990   0.00000  Uiso   1.00
Co896  Co    0.31973   0.37982   0.38010   0.00000  Uiso   1.00
Co897  Co    0.68027   0.62018   0.38010   0.00000  Uiso   1.00
Co898  Co    0.31973   0.62018   0.38010   0.00000  Uiso   1.00
Co899  Co    0.68027   0.62018   0.61990   0.00000  Uiso   1.00
Co900  Co    0.37982   0.68027   0.38010   0.00000  Uiso   1.00
Co901  Co    0.37982   0.68027   0.61990   0.00000  Uiso   1.00
Co902  Co    0.43991   0.25964   0.50000   0.00000  Uiso   1.00
Co903  Co    0.56009   0.25964   0.50000   0.00000  Uiso   1.00
Co904  Co    0.74036   0.43991   0.50000   0.00000  Uiso   1.00
Co905  Co    0.25964   0.43991   0.50000   0.00000  Uiso   1.00
Co906  Co    0.74036   0.56009   0.50000   0.00000  Uiso   1.00
Co907  Co    0.56009   0.74036   0.50000   0.00000  Uiso   1.00
Co908  Co    0.43991   0.74036   0.50000   0.00000  Uiso   1.00
Co909  Co    0.25964   0.56009   0.50000   0.00000  Uiso   1.00
Co910  Co    0.40986   0.34977   0.67985   0.00000  Uiso   1.00
Co911  Co    0.34977   0.40986   0.67985   0.00000  Uiso   1.00
Co912  Co    0.40986   0.34977   0.32015   0.00000  Uiso   1.00
Co913  Co    0.34977   0.40986   0.32015   0.00000  Uiso   1.00
Co914  Co    0.59014   0.34977   0.67985   0.00000  Uiso   1.00
Co915  Co    0.34977   0.59014   0.67985   0.00000  Uiso   1.00
Co916  Co    0.59014   0.34977   0.32015   0.00000  Uiso   1.00
Co917  Co    0.34977   0.59014   0.32015   0.00000  Uiso   1.00
Co918  Co    0.65023   0.40986   0.67985   0.00000  Uiso   1.00
Co919  Co    0.65023   0.40986   0.32015   0.00000  Uiso   1.00
Co920  Co    0.40986   0.65023   0.32015   0.00000  Uiso   1.00
Co921  Co    0.40986   0.65023   0.67985   0.00000  Uiso   1.00
Co922  Co    0.65023   0.59014   0.32015   0.00000  Uiso   1.00
Co923  Co    0.65023   0.59014   0.67985   0.00000  Uiso   1.00
Co924  Co    0.59014   0.65023   0.32015   0.00000  Uiso   1.00
Co925  Co    0.59014   0.65023   0.67985   0.00000  Uiso   1.00
Co926  Co    0.40986   0.31973   0.64988   0.00000  Uiso   1.00
Co927  Co    0.31973   0.40986   0.64988   0.00000  Uiso   1.00
Co928  Co    0.68027   0.40986   0.35012   0.00000  Uiso   1.00
Co929  Co    0.68027   0.40986   0.64988   0.00000  Uiso   1.00
Co930  Co    0.40986   0.31973   0.35012   0.00000  Uiso   1.00
Co931  Co    0.31973   0.40986   0.35012   0.00000  Uiso   1.00
Co932  Co    0.40986   0.68027   0.64988   0.00000  Uiso   1.00
Co933  Co    0.40986   0.68027   0.35012   0.00000  Uiso   1.00
Co934  Co    0.59014   0.31973   0.64988   0.00000  Uiso   1.00
Co935  Co    0.31973   0.59014   0.64988   0.00000  Uiso   1.00
Co936  Co    0.59014   0.31973   0.35012   0.00000  Uiso   1.00
Co937  Co    0.31973   0.59014   0.35012   0.00000  Uiso   1.00
Co938  Co    0.59014   0.68027   0.64988   0.00000  Uiso   1.00
Co939  Co    0.68027   0.59014   0.64988   0.00000  Uiso   1.00
Co940  Co    0.59014   0.68027   0.35012   0.00000  Uiso   1.00
Co941  Co    0.68027   0.59014   0.35012   0.00000  Uiso   1.00
Co942  Co    0.34977   0.31973   0.58993   0.00000  Uiso   1.00
Co943  Co    0.31973   0.34977   0.58993   0.00000  Uiso   1.00
Co944  Co    0.31973   0.34977   0.41007   0.00000  Uiso   1.00
Co945  Co    0.34977   0.31973   0.41007   0.00000  Uiso   1.00
Co946  Co    0.68027   0.34977   0.58993   0.00000  Uiso   1.00
Co947  Co    0.68027   0.34977   0.41007   0.00000  Uiso   1.00
Co948  Co    0.34977   0.68027   0.58993   0.00000  Uiso   1.00
Co949  Co    0.34977   0.68027   0.41007   0.00000  Uiso   1.00
Co950  Co    0.65023   0.31973   0.58993   0.00000  Uiso   1.00
Co951  Co    0.65023   0.31973   0.41007   0.00000  Uiso   1.00
Co952  Co    0.31973   0.65023   0.58993   0.00000  Uiso   1.00
Co953  Co    0.65023   0.68027   0.41007   0.00000  Uiso   1.00
Co954  Co    0.68027   0.65023   0.41007   0.00000  Uiso   1.00
Co955  Co    0.31973   0.65023   0.41007   0.00000  Uiso   1.00
Co956  Co    0.68027   0.65023   0.58993   0.00000  Uiso   1.00
Co957  Co    0.65023   0.68027   0.58993   0.00000  Uiso   1.00
Co958  Co    0.43991   0.43991   0.73981   0.00000  Uiso   1.00
Co959  Co    0.43991   0.56009   0.73981   0.00000  Uiso   1.00
Co960  Co    0.56009   0.43991   0.73981   0.00000  Uiso   1.00
Co961  Co    0.56009   0.56009   0.73981   0.00000  Uiso   1.00
Co962  Co    0.56009   0.43991   0.26019   0.00000  Uiso   1.00
Co963  Co    0.43991   0.56009   0.26019   0.00000  Uiso   1.00
Co964  Co    0.56009   0.56009   0.26019   0.00000  Uiso   1.00
Co965  Co    0.43991   0.43991   0.26019   0.00000  Uiso   1.00
Co966  Co    0.31973   0.31973   0.50000   0.00000  Uiso   1.00
Co967  Co    0.68027   0.31973   0.50000   0.00000  Uiso   1.00
Co968  Co    0.68027   0.68027   0.50000   0.00000  Uiso   1.00
Co969  Co    0.31973   0.68027   0.50000   0.00000  Uiso   1.00
Co970  Co    0.50000   0.34977   0.70983   0.00000  Uiso   1.00
Co971  Co    0.34977   0.50000   0.70983   0.00000  Uiso   1.00
Co972  Co    0.50000   0.34977   0.29017   0.00000  Uiso   1.00
Co973  Co    0.34977   0.50000   0.29017   0.00000  Uiso   1.00
Co974  Co    0.40986   0.37982   0.70983   0.00000  Uiso   1.00
Co975  Co    0.37982   0.40986   0.70983   0.00000  Uiso   1.00
Co976  Co    0.62018   0.40986   0.29017   0.00000  Uiso   1.00
Co977  Co    0.40986   0.62018   0.29017   0.00000  Uiso   1.00
Co978  Co    0.40986   0.37982   0.29017   0.00000  Uiso   1.00
Co979  Co    0.62018   0.40986   0.70983   0.00000  Uiso   1.00
Co980  Co    0.40986   0.62018   0.70983   0.00000  Uiso   1.00
Co981  Co    0.37982   0.40986   0.29017   0.00000  Uiso   1.00
Co982  Co    0.59014   0.37982   0.70983   0.00000  Uiso   1.00
Co983  Co    0.37982   0.59014   0.70983   0.00000  Uiso   1.00
Co984  Co    0.59014   0.37982   0.29017   0.00000  Uiso   1.00
Co985  Co    0.37982   0.59014   0.29017   0.00000  Uiso   1.00
Co986  Co    0.59014   0.62018   0.29017   0.00000  Uiso   1.00
Co987  Co    0.59014   0.62018   0.70983   0.00000  Uiso   1.00
Co988  Co    0.62018   0.59014   0.29017   0.00000  Uiso   1.00
Co989  Co    0.62018   0.59014   0.70983   0.00000  Uiso   1.00
Co990  Co    0.65023   0.50000   0.29017   0.00000  Uiso   1.00
Co991  Co    0.50000   0.65023   0.29017   0.00000  Uiso   1.00
Co992  Co    0.65023   0.50000   0.70983   0.00000  Uiso   1.00
Co993  Co    0.50000   0.65023   0.70983   0.00000  Uiso   1.00
Co994  Co    0.50000   0.28968   0.64988   0.00000  Uiso   1.00
Co995  Co    0.28968   0.50000   0.64988   0.00000  Uiso   1.00
Co996  Co    0.50000   0.28968   0.35012   0.00000  Uiso   1.00
Co997  Co    0.28968   0.50000   0.35012   0.00000  Uiso   1.00
Co998  Co    0.71032   0.50000   0.64988   0.00000  Uiso   1.00
Co999  Co    0.71032   0.50000   0.35012   0.00000  Uiso   1.00
Co1000 Co    0.50000   0.71032   0.64988   0.00000  Uiso   1.00
Co1001 Co    0.50000   0.71032   0.35012   0.00000  Uiso   1.00
Co1002 Co    0.37982   0.28968   0.58993   0.00000  Uiso   1.00
Co1003 Co    0.28968   0.37982   0.58993   0.00000  Uiso   1.00
Co1004 Co    0.62018   0.28968   0.58993   0.00000  Uiso   1.00
Co1005 Co    0.37982   0.28968   0.41007   0.00000  Uiso   1.00
Co1006 Co    0.28968   0.37982   0.41007   0.00000  Uiso   1.00
Co1007 Co    0.62018   0.28968   0.41007   0.00000  Uiso   1.00
Co1008 Co    0.28968   0.62018   0.58993   0.00000  Uiso   1.00
Co1009 Co    0.28968   0.62018   0.41007   0.00000  Uiso   1.00
Co1010 Co    0.46995   0.25964   0.58993   0.00000  Uiso   1.00
Co1011 Co    0.46995   0.25964   0.41007   0.00000  Uiso   1.00
Co1012 Co    0.74036   0.46995   0.41007   0.00000  Uiso   1.00
Co1013 Co    0.74036   0.46995   0.58993   0.00000  Uiso   1.00
Co1014 Co    0.46995   0.74036   0.41007   0.00000  Uiso   1.00
Co1015 Co    0.25964   0.46995   0.58993   0.00000  Uiso   1.00
Co1016 Co    0.46995   0.74036   0.58993   0.00000  Uiso   1.00
Co1017 Co    0.25964   0.46995   0.41007   0.00000  Uiso   1.00
Co1018 Co    0.53005   0.25964   0.58993   0.00000  Uiso   1.00
Co1019 Co    0.53005   0.25964   0.41007   0.00000  Uiso   1.00
Co1020 Co    0.74036   0.53005   0.41007   0.00000  Uiso   1.00
Co1021 Co    0.53005   0.74036   0.41007   0.00000  Uiso   1.00
Co1022 Co    0.25964   0.53005   0.58993   0.00000  Uiso   1.00
Co1023 Co    0.74036   0.53005   0.58993   0.00000  Uiso   1.00
Co1024 Co    0.53005   0.74036   0.58993   0.00000  Uiso   1.00
Co1025 Co    0.25964   0.53005   0.41007   0.00000  Uiso   1.00
Co1026 Co    0.71032   0.37982   0.58993   0.00000  Uiso   1.00
Co1027 Co    0.71032   0.37982   0.41007   0.00000  Uiso   1.00
Co1028 Co    0.62018   0.71032   0.41007   0.00000  Uiso   1.00
Co1029 Co    0.62018   0.71032   0.58993   0.00000  Uiso   1.00
Co1030 Co    0.71032   0.62018   0.41007   0.00000  Uiso   1.00
Co1031 Co    0.37982   0.71032   0.58993   0.00000  Uiso   1.00
Co1032 Co    0.71032   0.62018   0.58993   0.00000  Uiso   1.00
Co1033 Co    0.37982   0.71032   0.41007   0.00000  Uiso   1.00
Co1034 Co    0.40986   0.25964   0.52998   0.00000  Uiso   1.00
Co1035 Co    0.40986   0.25964   0.47002   0.00000  Uiso   1.00
Co1036 Co    0.74036   0.40986   0.52998   0.00000  Uiso   1.00
Co1037 Co    0.74036   0.40986   0.47002   0.00000  Uiso   1.00
Co1038 Co    0.25964   0.40986   0.52998   0.00000  Uiso   1.00
Co1039 Co    0.25964   0.40986   0.47002   0.00000  Uiso   1.00
Co1040 Co    0.40986   0.74036   0.52998   0.00000  Uiso   1.00
Co1041 Co    0.40986   0.74036   0.47002   0.00000  Uiso   1.00
Co1042 Co    0.59014   0.25964   0.52998   0.00000  Uiso   1.00
Co1043 Co    0.59014   0.25964   0.47002   0.00000  Uiso   1.00
Co1044 Co    0.74036   0.59014   0.47002   0.00000  Uiso   1.00
Co1045 Co    0.74036   0.59014   0.52998   0.00000  Uiso   1.00
Co1046 Co    0.59014   0.74036   0.47002   0.00000  Uiso   1.00
Co1047 Co    0.59014   0.74036   0.52998   0.00000  Uiso   1.00
Co1048 Co    0.25964   0.59014   0.52998   0.00000  Uiso   1.00
Co1049 Co    0.25964   0.59014   0.47002   0.00000  Uiso   1.00
Co1050 Co    0.43991   0.34977   0.70983   0.00000  Uiso   1.00
Co1051 Co    0.34977   0.43991   0.70983   0.00000  Uiso   1.00
Co1052 Co    0.56009   0.34977   0.70983   0.00000  Uiso   1.00
Co1053 Co    0.34977   0.56009   0.70983   0.00000  Uiso   1.00
Co1054 Co    0.56009   0.34977   0.29017   0.00000  Uiso   1.00
Co1055 Co    0.34977   0.56009   0.29017   0.00000  Uiso   1.00
Co1056 Co    0.43991   0.34977   0.29017   0.00000  Uiso   1.00
Co1057 Co    0.34977   0.43991   0.29017   0.00000  Uiso   1.00
Co1058 Co    0.65023   0.43991   0.29017   0.00000  Uiso   1.00
Co1059 Co    0.43991   0.65023   0.29017   0.00000  Uiso   1.00
Co1060 Co    0.56009   0.65023   0.70983   0.00000  Uiso   1.00
Co1061 Co    0.56009   0.65023   0.29017   0.00000  Uiso   1.00
Co1062 Co    0.65023   0.43991   0.70983   0.00000  Uiso   1.00
Co1063 Co    0.65023   0.56009   0.70983   0.00000  Uiso   1.00
Co1064 Co    0.65023   0.56009   0.29017   0.00000  Uiso   1.00
Co1065 Co    0.43991   0.65023   0.70983   0.00000  Uiso   1.00
Co1066 Co    0.43991   0.28968   0.64988   0.00000  Uiso   1.00
Co1067 Co    0.56009   0.28968   0.64988   0.00000  Uiso   1.00
Co1068 Co    0.28968   0.43991   0.64988   0.00000  Uiso   1.00
Co1069 Co    0.28968   0.56009   0.64988   0.00000  Uiso   1.00
Co1070 Co    0.43991   0.28968   0.35012   0.00000  Uiso   1.00
Co1071 Co    0.56009   0.28968   0.35012   0.00000  Uiso   1.00
Co1072 Co    0.28968   0.43991   0.35012   0.00000  Uiso   1.00
Co1073 Co    0.28968   0.56009   0.35012   0.00000  Uiso   1.00
Co1074 Co    0.71032   0.43991   0.64988   0.00000  Uiso   1.00
Co1075 Co    0.71032   0.43991   0.35012   0.00000  Uiso   1.00
Co1076 Co    0.56009   0.71032   0.35012   0.00000  Uiso   1.00
Co1077 Co    0.71032   0.56009   0.35012   0.00000  Uiso   1.00
Co1078 Co    0.56009   0.71032   0.64988   0.00000  Uiso   1.00
Co1079 Co    0.71032   0.56009   0.64988   0.00000  Uiso   1.00
Co1080 Co    0.43991   0.71032   0.35012   0.00000  Uiso   1.00
Co1081 Co    0.43991   0.71032   0.64988   0.00000  Uiso   1.00
Co1082 Co    0.28968   0.34977   0.55995   0.00000  Uiso   1.00
Co1083 Co    0.34977   0.28968   0.55995   0.00000  Uiso   1.00
Co1084 Co    0.28968   0.34977   0.44005   0.00000  Uiso   1.00
Co1085 Co    0.34977   0.28968   0.44005   0.00000  Uiso   1.00
Co1086 Co    0.65023   0.28968   0.55995   0.00000  Uiso   1.00
Co1087 Co    0.65023   0.28968   0.44005   0.00000  Uiso   1.00
Co1088 Co    0.28968   0.65023   0.55995   0.00000  Uiso   1.00
Co1089 Co    0.28968   0.65023   0.44005   0.00000  Uiso   1.00
Co1090 Co    0.71032   0.34977   0.55995   0.00000  Uiso   1.00
Co1091 Co    0.71032   0.34977   0.44005   0.00000  Uiso   1.00
Co1092 Co    0.34977   0.71032   0.55995   0.00000  Uiso   1.00
Co1093 Co    0.34977   0.71032   0.44005   0.00000  Uiso   1.00
Co1094 Co    0.71032   0.65023   0.44005   0.00000  Uiso   1.00
Co1095 Co    0.65023   0.71032   0.44005   0.00000  Uiso   1.00
Co1096 Co    0.71032   0.65023   0.55995   0.00000  Uiso   1.00
Co1097 Co    0.65023   0.71032   0.55995   0.00000  Uiso   1.00
Co1098 Co    0.50000   0.37982   0.73981   0.00000  Uiso   1.00
Co1099 Co    0.37982   0.50000   0.73981   0.00000  Uiso   1.00
Co1100 Co    0.62018   0.50000   0.73981   0.00000  Uiso   1.00
Co1101 Co    0.50000   0.62018   0.73981   0.00000  Uiso   1.00
Co1102 Co    0.62018   0.50000   0.26019   0.00000  Uiso   1.00
Co1103 Co    0.50000   0.62018   0.26019   0.00000  Uiso   1.00
Co1104 Co    0.50000   0.37982   0.26019   0.00000  Uiso   1.00
Co1105 Co    0.37982   0.50000   0.26019   0.00000  Uiso   1.00
Co1106 Co    0.50000   0.25964   0.61990   0.00000  Uiso   1.00
Co1107 Co    0.25964   0.50000   0.61990   0.00000  Uiso   1.00
Co1108 Co    0.50000   0.25964   0.38010   0.00000  Uiso   1.00
Co1109 Co    0.74036   0.50000   0.38010   0.00000  Uiso   1.00
Co1110 Co    0.50000   0.74036   0.38010   0.00000  Uiso   1.00
Co1111 Co    0.74036   0.50000   0.61990   0.00000  Uiso   1.00
Co1112 Co    0.25964   0.50000   0.38010   0.00000  Uiso   1.00
Co1113 Co    0.50000   0.74036   0.61990   0.00000  Uiso   1.00
Co1114 Co    0.62018   0.25964   0.50000   0.00000  Uiso   1.00
Co1115 Co    0.37982   0.25964   0.50000   0.00000  Uiso   1.00
Co1116 Co    0.74036   0.37982   0.50000   0.00000  Uiso   1.00
Co1117 Co    0.62018   0.74036   0.50000   0.00000  Uiso   1.00
Co1118 Co    0.74036   0.62018   0.50000   0.00000  Uiso   1.00
Co1119 Co    0.25964   0.37982   0.50000   0.00000  Uiso   1.00
Co1120 Co    0.37982   0.74036   0.50000   0.00000  Uiso   1.00
Co1121 Co    0.25964   0.62018   0.50000   0.00000  Uiso   1.00
Co1122 Co    0.46995   0.50000   0.76978   0.00000  Uiso   1.00
Co1123 Co    0.50000   0.46995   0.76978   0.00000  Uiso   1.00
Co1124 Co    0.46995   0.50000   0.23022   0.00000  Uiso   1.00
Co1125 Co    0.50000   0.46995   0.23022   0.00000  Uiso   1.00
Co1126 Co    0.53005   0.50000   0.76978   0.00000  Uiso   1.00
Co1127 Co    0.50000   0.53005   0.76978   0.00000  Uiso   1.00
Co1128 Co    0.53005   0.50000   0.23022   0.00000  Uiso   1.00
Co1129 Co    0.50000   0.53005   0.23022   0.00000  Uiso   1.00
Co1130 Co    0.40986   0.25964   0.58993   0.00000  Uiso   1.00
Co1131 Co    0.40986   0.25964   0.41007   0.00000  Uiso   1.00
Co1132 Co    0.74036   0.40986   0.58993   0.00000  Uiso   1.00
Co1133 Co    0.74036   0.40986   0.41007   0.00000  Uiso   1.00
Co1134 Co    0.25964   0.40986   0.41007   0.00000  Uiso   1.00
Co1135 Co    0.25964   0.40986   0.58993   0.00000  Uiso   1.00
Co1136 Co    0.40986   0.74036   0.58993   0.00000  Uiso   1.00
Co1137 Co    0.40986   0.74036   0.41007   0.00000  Uiso   1.00
Co1138 Co    0.59014   0.25964   0.58993   0.00000  Uiso   1.00
Co1139 Co    0.59014   0.25964   0.41007   0.00000  Uiso   1.00
Co1140 Co    0.25964   0.59014   0.58993   0.00000  Uiso   1.00
Co1141 Co    0.59014   0.74036   0.58993   0.00000  Uiso   1.00
Co1142 Co    0.59014   0.74036   0.41007   0.00000  Uiso   1.00
Co1143 Co    0.74036   0.59014   0.41007   0.00000  Uiso   1.00
Co1144 Co    0.74036   0.59014   0.58993   0.00000  Uiso   1.00
Co1145 Co    0.25964   0.59014   0.41007   0.00000  Uiso   1.00
Co1146 Co    0.22959   0.50000   0.52998   0.00000  Uiso   1.00
Co1147 Co    0.50000   0.22959   0.47002   0.00000  Uiso   1.00
Co1148 Co    0.50000   0.22959   0.52998   0.00000  Uiso   1.00
Co1149 Co    0.22959   0.50000   0.47002   0.00000  Uiso   1.00
Co1150 Co    0.77041   0.50000   0.47002   0.00000  Uiso   1.00
Co1151 Co    0.77041   0.50000   0.52998   0.00000  Uiso   1.00
Co1152 Co    0.50000   0.77041   0.47002   0.00000  Uiso   1.00
Co1153 Co    0.50000   0.77041   0.52998   0.00000  Uiso   1.00
Co1154 Co    0.43991   0.37982   0.73981   0.00000  Uiso   1.00
Co1155 Co    0.37982   0.43991   0.73981   0.00000  Uiso   1.00
Co1156 Co    0.62018   0.43991   0.73981   0.00000  Uiso   1.00
Co1157 Co    0.56009   0.37982   0.73981   0.00000  Uiso   1.00
Co1158 Co    0.43991   0.62018   0.73981   0.00000  Uiso   1.00
Co1159 Co    0.62018   0.56009   0.73981   0.00000  Uiso   1.00
Co1160 Co    0.37982   0.56009   0.73981   0.00000  Uiso   1.00
Co1161 Co    0.56009   0.62018   0.73981   0.00000  Uiso   1.00
Co1162 Co    0.62018   0.43991   0.26019   0.00000  Uiso   1.00
Co1163 Co    0.56009   0.37982   0.26019   0.00000  Uiso   1.00
Co1164 Co    0.43991   0.62018   0.26019   0.00000  Uiso   1.00
Co1165 Co    0.56009   0.62018   0.26019   0.00000  Uiso   1.00
Co1166 Co    0.37982   0.56009   0.26019   0.00000  Uiso   1.00
Co1167 Co    0.43991   0.37982   0.26019   0.00000  Uiso   1.00
Co1168 Co    0.62018   0.56009   0.26019   0.00000  Uiso   1.00
Co1169 Co    0.37982   0.43991   0.26019   0.00000  Uiso   1.00
Co1170 Co    0.56009   0.25964   0.61990   0.00000  Uiso   1.00
Co1171 Co    0.43991   0.25964   0.61990   0.00000  Uiso   1.00
Co1172 Co    0.74036   0.43991   0.38010   0.00000  Uiso   1.00
Co1173 Co    0.56009   0.74036   0.38010   0.00000  Uiso   1.00
Co1174 Co    0.43991   0.25964   0.38010   0.00000  Uiso   1.00
Co1175 Co    0.56009   0.25964   0.38010   0.00000  Uiso   1.00
Co1176 Co    0.25964   0.43991   0.61990   0.00000  Uiso   1.00
Co1177 Co    0.25964   0.56009   0.61990   0.00000  Uiso   1.00
Co1178 Co    0.74036   0.56009   0.61990   0.00000  Uiso   1.00
Co1179 Co    0.74036   0.56009   0.38010   0.00000  Uiso   1.00
Co1180 Co    0.25964   0.43991   0.38010   0.00000  Uiso   1.00
Co1181 Co    0.74036   0.43991   0.61990   0.00000  Uiso   1.00
Co1182 Co    0.43991   0.74036   0.38010   0.00000  Uiso   1.00
Co1183 Co    0.56009   0.74036   0.61990   0.00000  Uiso   1.00
Co1184 Co    0.43991   0.74036   0.61990   0.00000  Uiso   1.00
Co1185 Co    0.25964   0.56009   0.38010   0.00000  Uiso   1.00
Co1186 Co    0.46995   0.43991   0.76978   0.00000  Uiso   1.00
Co1187 Co    0.46995   0.56009   0.76978   0.00000  Uiso   1.00
Co1188 Co    0.56009   0.46995   0.76978   0.00000  Uiso   1.00
Co1189 Co    0.43991   0.46995   0.76978   0.00000  Uiso   1.00
Co1190 Co    0.46995   0.43991   0.23022   0.00000  Uiso   1.00
Co1191 Co    0.43991   0.46995   0.23022   0.00000  Uiso   1.00
Co1192 Co    0.56009   0.46995   0.23022   0.00000  Uiso   1.00
Co1193 Co    0.46995   0.56009   0.23022   0.00000  Uiso   1.00
Co1194 Co    0.43991   0.53005   0.76978   0.00000  Uiso   1.00
Co1195 Co    0.53005   0.43991   0.76978   0.00000  Uiso   1.00
Co1196 Co    0.56009   0.53005   0.76978   0.00000  Uiso   1.00
Co1197 Co    0.53005   0.56009   0.76978   0.00000  Uiso   1.00
Co1198 Co    0.43991   0.53005   0.23022   0.00000  Uiso   1.00
Co1199 Co    0.53005   0.43991   0.23022   0.00000  Uiso   1.00
Co1200 Co    0.56009   0.53005   0.23022   0.00000  Uiso   1.00
Co1201 Co    0.53005   0.56009   0.23022   0.00000  Uiso   1.00
Co1202 Co    0.46995   0.31973   0.70983   0.00000  Uiso   1.00
Co1203 Co    0.31973   0.46995   0.70983   0.00000  Uiso   1.00
Co1204 Co    0.68027   0.46995   0.29017   0.00000  Uiso   1.00
Co1205 Co    0.46995   0.31973   0.29017   0.00000  Uiso   1.00
Co1206 Co    0.46995   0.68027   0.29017   0.00000  Uiso   1.00
Co1207 Co    0.68027   0.46995   0.70983   0.00000  Uiso   1.00
Co1208 Co    0.31973   0.46995   0.29017   0.00000  Uiso   1.00
Co1209 Co    0.46995   0.68027   0.70983   0.00000  Uiso   1.00
Co1210 Co    0.53005   0.31973   0.70983   0.00000  Uiso   1.00
Co1211 Co    0.31973   0.53005   0.70983   0.00000  Uiso   1.00
Co1212 Co    0.68027   0.53005   0.29017   0.00000  Uiso   1.00
Co1213 Co    0.68027   0.53005   0.70983   0.00000  Uiso   1.00
Co1214 Co    0.53005   0.68027   0.29017   0.00000  Uiso   1.00
Co1215 Co    0.53005   0.31973   0.29017   0.00000  Uiso   1.00
Co1216 Co    0.53005   0.68027   0.70983   0.00000  Uiso   1.00
Co1217 Co    0.31973   0.53005   0.29017   0.00000  Uiso   1.00
Co1218 Co    0.34977   0.34977   0.67985   0.00000  Uiso   1.00
Co1219 Co    0.34977   0.34977   0.32015   0.00000  Uiso   1.00
Co1220 Co    0.46995   0.28968   0.67985   0.00000  Uiso   1.00
Co1221 Co    0.28968   0.46995   0.67985   0.00000  Uiso   1.00
Co1222 Co    0.46995   0.28968   0.32015   0.00000  Uiso   1.00
Co1223 Co    0.28968   0.46995   0.32015   0.00000  Uiso   1.00
Co1224 Co    0.53005   0.28968   0.67985   0.00000  Uiso   1.00
Co1225 Co    0.28968   0.53005   0.67985   0.00000  Uiso   1.00
Co1226 Co    0.53005   0.28968   0.32015   0.00000  Uiso   1.00
Co1227 Co    0.28968   0.53005   0.32015   0.00000  Uiso   1.00
Co1228 Co    0.65023   0.34977   0.32015   0.00000  Uiso   1.00
Co1229 Co    0.65023   0.34977   0.67985   0.00000  Uiso   1.00
Co1230 Co    0.34977   0.65023   0.32015   0.00000  Uiso   1.00
Co1231 Co    0.34977   0.65023   0.67985   0.00000  Uiso   1.00
Co1232 Co    0.71032   0.46995   0.67985   0.00000  Uiso   1.00
Co1233 Co    0.71032   0.46995   0.32015   0.00000  Uiso   1.00
Co1234 Co    0.46995   0.71032   0.32015   0.00000  Uiso   1.00
Co1235 Co    0.46995   0.71032   0.67985   0.00000  Uiso   1.00
Co1236 Co    0.71032   0.53005   0.32015   0.00000  Uiso   1.00
Co1237 Co    0.71032   0.53005   0.67985   0.00000  Uiso   1.00
Co1238 Co    0.53005   0.71032   0.32015   0.00000  Uiso   1.00
Co1239 Co    0.53005   0.71032   0.67985   0.00000  Uiso   1.00
Co1240 Co    0.65023   0.65023   0.32015   0.00000  Uiso   1.00
Co1241 Co    0.65023   0.65023   0.67985   0.00000  Uiso   1.00
Co1242 Co    0.31973   0.34977   0.64988   0.00000  Uiso   1.00
Co1243 Co    0.34977   0.31973   0.64988   0.00000  Uiso   1.00
Co1244 Co    0.68027   0.34977   0.35012   0.00000  Uiso   1.00
Co1245 Co    0.68027   0.34977   0.64988   0.00000  Uiso   1.00
Co1246 Co    0.31973   0.34977   0.35012   0.00000  Uiso   1.00
Co1247 Co    0.34977   0.31973   0.35012   0.00000  Uiso   1.00
Co1248 Co    0.34977   0.68027   0.35012   0.00000  Uiso   1.00
Co1249 Co    0.34977   0.68027   0.64988   0.00000  Uiso   1.00
Co1250 Co    0.65023   0.31973   0.64988   0.00000  Uiso   1.00
Co1251 Co    0.65023   0.31973   0.35012   0.00000  Uiso   1.00
Co1252 Co    0.31973   0.65023   0.64988   0.00000  Uiso   1.00
Co1253 Co    0.31973   0.65023   0.35012   0.00000  Uiso   1.00
Co1254 Co    0.68027   0.65023   0.35012   0.00000  Uiso   1.00
Co1255 Co    0.68027   0.65023   0.64988   0.00000  Uiso   1.00
Co1256 Co    0.65023   0.68027   0.64988   0.00000  Uiso   1.00
Co1257 Co    0.65023   0.68027   0.35012   0.00000  Uiso   1.00
Co1258 Co    0.46995   0.22959   0.55995   0.00000  Uiso   1.00
Co1259 Co    0.46995   0.22959   0.44005   0.00000  Uiso   1.00
Co1260 Co    0.22959   0.46995   0.55995   0.00000  Uiso   1.00
Co1261 Co    0.22959   0.46995   0.44005   0.00000  Uiso   1.00
Co1262 Co    0.53005   0.22959   0.55995   0.00000  Uiso   1.00
Co1263 Co    0.53005   0.22959   0.44005   0.00000  Uiso   1.00
Co1264 Co    0.22959   0.53005   0.55995   0.00000  Uiso   1.00
Co1265 Co    0.22959   0.53005   0.44005   0.00000  Uiso   1.00
Co1266 Co    0.77041   0.46995   0.44005   0.00000  Uiso   1.00
Co1267 Co    0.77041   0.46995   0.55995   0.00000  Uiso   1.00
Co1268 Co    0.46995   0.77041   0.44005   0.00000  Uiso   1.00
Co1269 Co    0.46995   0.77041   0.55995   0.00000  Uiso   1.00
Co1270 Co    0.77041   0.53005   0.55995   0.00000  Uiso   1.00
Co1271 Co    0.77041   0.53005   0.44005   0.00000  Uiso   1.00
Co1272 Co    0.53005   0.77041   0.55995   0.00000  Uiso   1.00
Co1273 Co    0.53005   0.77041   0.44005   0.00000  Uiso   1.00
Co1274 Co    0.43991   0.22959   0.47002   0.00000  Uiso   1.00
Co1275 Co    0.56009   0.22959   0.52998   0.00000  Uiso   1.00
Co1276 Co    0.43991   0.22959   0.52998   0.00000  Uiso   1.00
Co1277 Co    0.56009   0.22959   0.47002   0.00000  Uiso   1.00
Co1278 Co    0.22959   0.43991   0.52998   0.00000  Uiso   1.00
Co1279 Co    0.22959   0.43991   0.47002   0.00000  Uiso   1.00
Co1280 Co    0.22959   0.56009   0.52998   0.00000  Uiso   1.00
Co1281 Co    0.22959   0.56009   0.47002   0.00000  Uiso   1.00
Co1282 Co    0.28968   0.31973   0.52998   0.00000  Uiso   1.00
Co1283 Co    0.28968   0.31973   0.47002   0.00000  Uiso   1.00
Co1284 Co    0.68027   0.28968   0.47002   0.00000  Uiso   1.00
Co1285 Co    0.68027   0.28968   0.52998   0.00000  Uiso   1.00
Co1286 Co    0.31973   0.28968   0.52998   0.00000  Uiso   1.00
Co1287 Co    0.31973   0.28968   0.47002   0.00000  Uiso   1.00
Co1288 Co    0.28968   0.68027   0.52998   0.00000  Uiso   1.00
Co1289 Co    0.28968   0.68027   0.47002   0.00000  Uiso   1.00
Co1290 Co    0.71032   0.31973   0.47002   0.00000  Uiso   1.00
Co1291 Co    0.71032   0.31973   0.52998   0.00000  Uiso   1.00
Co1292 Co    0.68027   0.71032   0.47002   0.00000  Uiso   1.00
Co1293 Co    0.71032   0.68027   0.52998   0.00000  Uiso   1.00
Co1294 Co    0.71032   0.68027   0.47002   0.00000  Uiso   1.00
Co1295 Co    0.31973   0.71032   0.47002   0.00000  Uiso   1.00
Co1296 Co    0.31973   0.71032   0.52998   0.00000  Uiso   1.00
Co1297 Co    0.68027   0.71032   0.52998   0.00000  Uiso   1.00
Co1298 Co    0.77041   0.43991   0.52998   0.00000  Uiso   1.00
Co1299 Co    0.77041   0.43991   0.47002   0.00000  Uiso   1.00
Co1300 Co    0.77041   0.56009   0.52998   0.00000  Uiso   1.00
Co1301 Co    0.56009   0.77041   0.47002   0.00000  Uiso   1.00
Co1302 Co    0.56009   0.77041   0.52998   0.00000  Uiso   1.00
Co1303 Co    0.77041   0.56009   0.47002   0.00000  Uiso   1.00
Co1304 Co    0.43991   0.77041   0.52998   0.00000  Uiso   1.00
Co1305 Co    0.43991   0.77041   0.47002   0.00000  Uiso   1.00
Co1306 Co    0.68027   0.31973   0.61990   0.00000  Uiso   1.00
Co1307 Co    0.31973   0.31973   0.61990   0.00000  Uiso   1.00
Co1308 Co    0.31973   0.31973   0.38010   0.00000  Uiso   1.00
Co1309 Co    0.31973   0.68027   0.61990   0.00000  Uiso   1.00
Co1310 Co    0.68027   0.31973   0.38010   0.00000  Uiso   1.00
Co1311 Co    0.68027   0.68027   0.38010   0.00000  Uiso   1.00
Co1312 Co    0.68027   0.68027   0.61990   0.00000  Uiso   1.00
Co1313 Co    0.31973   0.68027   0.38010   0.00000  Uiso   1.00
Co1314 Co    0.50000   0.40986   0.76978   0.00000  Uiso   1.00
Co1315 Co    0.40986   0.50000   0.76978   0.00000  Uiso   1.00
Co1316 Co    0.50000   0.40986   0.23022   0.00000  Uiso   1.00
Co1317 Co    0.40986   0.50000   0.23022   0.00000  Uiso   1.00
Co1318 Co    0.59014   0.50000   0.76978   0.00000  Uiso   1.00
Co1319 Co    0.50000   0.59014   0.76978   0.00000  Uiso   1.00
Co1320 Co    0.50000   0.59014   0.23022   0.00000  Uiso   1.00
Co1321 Co    0.59014   0.50000   0.23022   0.00000  Uiso   1.00
Co1322 Co    0.37982   0.34977   0.70983   0.00000  Uiso   1.00
Co1323 Co    0.62018   0.34977   0.70983   0.00000  Uiso   1.00
Co1324 Co    0.34977   0.37982   0.70983   0.00000  Uiso   1.00
Co1325 Co    0.34977   0.62018   0.70983   0.00000  Uiso   1.00
Co1326 Co    0.62018   0.34977   0.29017   0.00000  Uiso   1.00
Co1327 Co    0.37982   0.34977   0.29017   0.00000  Uiso   1.00
Co1328 Co    0.34977   0.62018   0.29017   0.00000  Uiso   1.00
Co1329 Co    0.34977   0.37982   0.29017   0.00000  Uiso   1.00
Co1330 Co    0.65023   0.37982   0.29017   0.00000  Uiso   1.00
Co1331 Co    0.37982   0.65023   0.29017   0.00000  Uiso   1.00
Co1332 Co    0.62018   0.65023   0.70983   0.00000  Uiso   1.00
Co1333 Co    0.65023   0.37982   0.70983   0.00000  Uiso   1.00
Co1334 Co    0.62018   0.65023   0.29017   0.00000  Uiso   1.00
Co1335 Co    0.65023   0.62018   0.70983   0.00000  Uiso   1.00
Co1336 Co    0.65023   0.62018   0.29017   0.00000  Uiso   1.00
Co1337 Co    0.37982   0.65023   0.70983   0.00000  Uiso   1.00
Co1338 Co    0.28968   0.37982   0.64988   0.00000  Uiso   1.00
Co1339 Co    0.62018   0.28968   0.64988   0.00000  Uiso   1.00
Co1340 Co    0.37982   0.28968   0.64988   0.00000  Uiso   1.00
Co1341 Co    0.62018   0.28968   0.35012   0.00000  Uiso   1.00
Co1342 Co    0.28968   0.62018   0.64988   0.00000  Uiso   1.00
Co1343 Co    0.28968   0.62018   0.35012   0.00000  Uiso   1.00
Co1344 Co    0.37982   0.28968   0.35012   0.00000  Uiso   1.00
Co1345 Co    0.28968   0.37982   0.35012   0.00000  Uiso   1.00
Co1346 Co    0.46995   0.25964   0.64988   0.00000  Uiso   1.00
Co1347 Co    0.25964   0.46995   0.64988   0.00000  Uiso   1.00
Co1348 Co    0.74036   0.46995   0.35012   0.00000  Uiso   1.00
Co1349 Co    0.46995   0.25964   0.35012   0.00000  Uiso   1.00
Co1350 Co    0.74036   0.46995   0.64988   0.00000  Uiso   1.00
Co1351 Co    0.46995   0.74036   0.64988   0.00000  Uiso   1.00
Co1352 Co    0.46995   0.74036   0.35012   0.00000  Uiso   1.00
Co1353 Co    0.25964   0.46995   0.35012   0.00000  Uiso   1.00
Co1354 Co    0.53005   0.25964   0.64988   0.00000  Uiso   1.00
Co1355 Co    0.25964   0.53005   0.64988   0.00000  Uiso   1.00
Co1356 Co    0.53005   0.74036   0.64988   0.00000  Uiso   1.00
Co1357 Co    0.74036   0.53005   0.64988   0.00000  Uiso   1.00
Co1358 Co    0.53005   0.25964   0.35012   0.00000  Uiso   1.00
Co1359 Co    0.53005   0.74036   0.35012   0.00000  Uiso   1.00
Co1360 Co    0.74036   0.53005   0.35012   0.00000  Uiso   1.00
Co1361 Co    0.25964   0.53005   0.35012   0.00000  Uiso   1.00
Co1362 Co    0.62018   0.71032   0.64988   0.00000  Uiso   1.00
Co1363 Co    0.71032   0.37982   0.64988   0.00000  Uiso   1.00
Co1364 Co    0.71032   0.37982   0.35012   0.00000  Uiso   1.00
Co1365 Co    0.62018   0.71032   0.35012   0.00000  Uiso   1.00
Co1366 Co    0.71032   0.62018   0.35012   0.00000  Uiso   1.00
Co1367 Co    0.71032   0.62018   0.64988   0.00000  Uiso   1.00
Co1368 Co    0.37982   0.71032   0.35012   0.00000  Uiso   1.00
Co1369 Co    0.37982   0.71032   0.64988   0.00000  Uiso   1.00
Co1370 Co    0.50000   0.22959   0.58993   0.00000  Uiso   1.00
Co1371 Co    0.22959   0.50000   0.58993   0.00000  Uiso   1.00
Co1372 Co    0.50000   0.22959   0.41007   0.00000  Uiso   1.00
Co1373 Co    0.22959   0.50000   0.41007   0.00000  Uiso   1.00
Co1374 Co    0.77041   0.50000   0.41007   0.00000  Uiso   1.00
Co1375 Co    0.50000   0.77041   0.41007   0.00000  Uiso   1.00
Co1376 Co    0.77041   0.50000   0.58993   0.00000  Uiso   1.00
Co1377 Co    0.50000   0.77041   0.58993   0.00000  Uiso   1.00
Co1378 Co    0.74036   0.34977   0.47002   0.00000  Uiso   1.00
Co1379 Co    0.74036   0.34977   0.52998   0.00000  Uiso   1.00
Co1380 Co    0.34977   0.25964   0.47002   0.00000  Uiso   1.00
Co1381 Co    0.34977   0.25964   0.52998   0.00000  Uiso   1.00
Co1382 Co    0.25964   0.34977   0.47002   0.00000  Uiso   1.00
Co1383 Co    0.25964   0.34977   0.52998   0.00000  Uiso   1.00
Co1384 Co    0.34977   0.74036   0.47002   0.00000  Uiso   1.00
Co1385 Co    0.34977   0.74036   0.52998   0.00000  Uiso   1.00
Co1386 Co    0.65023   0.25964   0.52998   0.00000  Uiso   1.00
Co1387 Co    0.65023   0.25964   0.47002   0.00000  Uiso   1.00
Co1388 Co    0.74036   0.65023   0.47002   0.00000  Uiso   1.00
Co1389 Co    0.74036   0.65023   0.52998   0.00000  Uiso   1.00
Co1390 Co    0.65023   0.74036   0.47002   0.00000  Uiso   1.00
Co1391 Co    0.65023   0.74036   0.52998   0.00000  Uiso   1.00
Co1392 Co    0.25964   0.65023   0.52998   0.00000  Uiso   1.00
Co1393 Co    0.25964   0.65023   0.47002   0.00000  Uiso   1.00
Co1394 Co    0.40986   0.56009   0.76978   0.00000  Uiso   1.00
Co1395 Co    0.43991   0.40986   0.76978   0.00000  Uiso   1.00
Co1396 Co    0.56009   0.40986   0.76978   0.00000  Uiso   1.00
Co1397 Co    0.40986   0.43991   0.76978   0.00000  Uiso   1.00
Co1398 Co    0.40986   0.43991   0.23022   0.00000  Uiso   1.00
Co1399 Co    0.40986   0.56009   0.23022   0.00000  Uiso   1.00
Co1400 Co    0.56009   0.40986   0.23022   0.00000  Uiso   1.00
Co1401 Co    0.43991   0.40986   0.23022   0.00000  Uiso   1.00
Co1402 Co    0.59014   0.43991   0.76978   0.00000  Uiso   1.00
Co1403 Co    0.43991   0.59014   0.76978   0.00000  Uiso   1.00
Co1404 Co    0.59014   0.56009   0.76978   0.00000  Uiso   1.00
Co1405 Co    0.56009   0.59014   0.76978   0.00000  Uiso   1.00
Co1406 Co    0.59014   0.43991   0.23022   0.00000  Uiso   1.00
Co1407 Co    0.56009   0.59014   0.23022   0.00000  Uiso   1.00
Co1408 Co    0.43991   0.59014   0.23022   0.00000  Uiso   1.00
Co1409 Co    0.59014   0.56009   0.23022   0.00000  Uiso   1.00
Co1410 Co    0.31973   0.40986   0.70983   0.00000  Uiso   1.00
Co1411 Co    0.40986   0.31973   0.70983   0.00000  Uiso   1.00
Co1412 Co    0.68027   0.40986   0.29017   0.00000  Uiso   1.00
Co1413 Co    0.40986   0.31973   0.29017   0.00000  Uiso   1.00
Co1414 Co    0.40986   0.68027   0.29017   0.00000  Uiso   1.00
Co1415 Co    0.31973   0.40986   0.29017   0.00000  Uiso   1.00
Co1416 Co    0.68027   0.40986   0.70983   0.00000  Uiso   1.00
Co1417 Co    0.40986   0.68027   0.70983   0.00000  Uiso   1.00
Co1418 Co    0.59014   0.31973   0.70983   0.00000  Uiso   1.00
Co1419 Co    0.59014   0.31973   0.29017   0.00000  Uiso   1.00
Co1420 Co    0.31973   0.59014   0.70983   0.00000  Uiso   1.00
Co1421 Co    0.31973   0.59014   0.29017   0.00000  Uiso   1.00
Co1422 Co    0.59014   0.68027   0.70983   0.00000  Uiso   1.00
Co1423 Co    0.59014   0.68027   0.29017   0.00000  Uiso   1.00
Co1424 Co    0.68027   0.59014   0.70983   0.00000  Uiso   1.00
Co1425 Co    0.68027   0.59014   0.29017   0.00000  Uiso   1.00
Co1426 Co    0.40986   0.28968   0.67985   0.00000  Uiso   1.00
Co1427 Co    0.28968   0.40986   0.67985   0.00000  Uiso   1.00
Co1428 Co    0.40986   0.28968   0.32015   0.00000  Uiso   1.00
Co1429 Co    0.28968   0.40986   0.32015   0.00000  Uiso   1.00
Co1430 Co    0.59014   0.28968   0.67985   0.00000  Uiso   1.00
Co1431 Co    0.28968   0.59014   0.67985   0.00000  Uiso   1.00
Co1432 Co    0.59014   0.28968   0.32015   0.00000  Uiso   1.00
Co1433 Co    0.28968   0.59014   0.32015   0.00000  Uiso   1.00
Co1434 Co    0.71032   0.40986   0.67985   0.00000  Uiso   1.00
Co1435 Co    0.71032   0.40986   0.32015   0.00000  Uiso   1.00
Co1436 Co    0.40986   0.71032   0.32015   0.00000  Uiso   1.00
Co1437 Co    0.40986   0.71032   0.67985   0.00000  Uiso   1.00
Co1438 Co    0.59014   0.71032   0.32015   0.00000  Uiso   1.00
Co1439 Co    0.71032   0.59014   0.67985   0.00000  Uiso   1.00
Co1440 Co    0.59014   0.71032   0.67985   0.00000  Uiso   1.00
Co1441 Co    0.71032   0.59014   0.32015   0.00000  Uiso   1.00
Co1442 Co    0.43991   0.22959   0.58993   0.00000  Uiso   1.00
Co1443 Co    0.43991   0.22959   0.41007   0.00000  Uiso   1.00
Co1444 Co    0.56009   0.22959   0.58993   0.00000  Uiso   1.00
Co1445 Co    0.22959   0.43991   0.58993   0.00000  Uiso   1.00
Co1446 Co    0.22959   0.43991   0.41007   0.00000  Uiso   1.00
Co1447 Co    0.56009   0.22959   0.41007   0.00000  Uiso   1.00
Co1448 Co    0.22959   0.56009   0.58993   0.00000  Uiso   1.00
Co1449 Co    0.22959   0.56009   0.41007   0.00000  Uiso   1.00
Co1450 Co    0.31973   0.28968   0.58993   0.00000  Uiso   1.00
Co1451 Co    0.28968   0.31973   0.58993   0.00000  Uiso   1.00
Co1452 Co    0.68027   0.28968   0.58993   0.00000  Uiso   1.00
Co1453 Co    0.28968   0.31973   0.41007   0.00000  Uiso   1.00
Co1454 Co    0.31973   0.28968   0.41007   0.00000  Uiso   1.00
Co1455 Co    0.68027   0.28968   0.41007   0.00000  Uiso   1.00
Co1456 Co    0.28968   0.68027   0.58993   0.00000  Uiso   1.00
Co1457 Co    0.28968   0.68027   0.41007   0.00000  Uiso   1.00
Co1458 Co    0.71032   0.31973   0.58993   0.00000  Uiso   1.00
Co1459 Co    0.71032   0.31973   0.41007   0.00000  Uiso   1.00
Co1460 Co    0.31973   0.71032   0.58993   0.00000  Uiso   1.00
Co1461 Co    0.71032   0.68027   0.41007   0.00000  Uiso   1.00
Co1462 Co    0.68027   0.71032   0.41007   0.00000  Uiso   1.00
Co1463 Co    0.31973   0.71032   0.41007   0.00000  Uiso   1.00
Co1464 Co    0.71032   0.68027   0.58993   0.00000  Uiso   1.00
Co1465 Co    0.68027   0.71032   0.58993   0.00000  Uiso   1.00
Co1466 Co    0.77041   0.43991   0.41007   0.00000  Uiso   1.00
Co1467 Co    0.77041   0.43991   0.58993   0.00000  Uiso   1.00
Co1468 Co    0.56009   0.77041   0.41007   0.00000  Uiso   1.00
Co1469 Co    0.56009   0.77041   0.58993   0.00000  Uiso   1.00
Co1470 Co    0.43991   0.77041   0.41007   0.00000  Uiso   1.00
Co1471 Co    0.77041   0.56009   0.41007   0.00000  Uiso   1.00
Co1472 Co    0.43991   0.77041   0.58993   0.00000  Uiso   1.00
Co1473 Co    0.77041   0.56009   0.58993   0.00000  Uiso   1.00
Co1474 Co    0.40986   0.22959   0.55995   0.00000  Uiso   1.00
Co1475 Co    0.22959   0.40986   0.44005   0.00000  Uiso   1.00
Co1476 Co    0.22959   0.40986   0.55995   0.00000  Uiso   1.00
Co1477 Co    0.40986   0.22959   0.44005   0.00000  Uiso   1.00
Co1478 Co    0.59014   0.22959   0.55995   0.00000  Uiso   1.00
Co1479 Co    0.59014   0.22959   0.44005   0.00000  Uiso   1.00
Co1480 Co    0.22959   0.59014   0.55995   0.00000  Uiso   1.00
Co1481 Co    0.22959   0.59014   0.44005   0.00000  Uiso   1.00
Co1482 Co    0.77041   0.40986   0.44005   0.00000  Uiso   1.00
Co1483 Co    0.77041   0.40986   0.55995   0.00000  Uiso   1.00
Co1484 Co    0.40986   0.77041   0.55995   0.00000  Uiso   1.00
Co1485 Co    0.40986   0.77041   0.44005   0.00000  Uiso   1.00
Co1486 Co    0.77041   0.59014   0.44005   0.00000  Uiso   1.00
Co1487 Co    0.59014   0.77041   0.44005   0.00000  Uiso   1.00
Co1488 Co    0.77041   0.59014   0.55995   0.00000  Uiso   1.00
Co1489 Co    0.59014   0.77041   0.55995   0.00000  Uiso   1.00
Co1490 Co    0.37982   0.37982   0.73981   0.00000  Uiso   1.00
Co1491 Co    0.62018   0.37982   0.73981   0.00000  Uiso   1.00
Co1492 Co    0.62018   0.62018   0.73981   0.00000  Uiso   1.00
Co1493 Co    0.62018   0.62018   0.26019   0.00000  Uiso   1.00
Co1494 Co    0.37982   0.62018   0.73981   0.00000  Uiso   1.00
Co1495 Co    0.62018   0.37982   0.26019   0.00000  Uiso   1.00
Co1496 Co    0.37982   0.37982   0.26019   0.00000  Uiso   1.00
Co1497 Co    0.37982   0.62018   0.26019   0.00000  Uiso   1.00
Co1498 Co    0.62018   0.25964   0.61990   0.00000  Uiso   1.00
Co1499 Co    0.37982   0.25964   0.61990   0.00000  Uiso   1.00
Co1500 Co    0.62018   0.25964   0.38010   0.00000  Uiso   1.00
Co1501 Co    0.25964   0.37982   0.61990   0.00000  Uiso   1.00
Co1502 Co    0.37982   0.25964   0.38010   0.00000  Uiso   1.00
Co1503 Co    0.62018   0.74036   0.38010   0.00000  Uiso   1.00
Co1504 Co    0.74036   0.37982   0.38010   0.00000  Uiso   1.00
Co1505 Co    0.74036   0.62018   0.38010   0.00000  Uiso   1.00
Co1506 Co    0.74036   0.37982   0.61990   0.00000  Uiso   1.00
Co1507 Co    0.62018   0.74036   0.61990   0.00000  Uiso   1.00
Co1508 Co    0.25964   0.62018   0.61990   0.00000  Uiso   1.00
Co1509 Co    0.25964   0.37982   0.38010   0.00000  Uiso   1.00
Co1510 Co    0.74036   0.62018   0.61990   0.00000  Uiso   1.00
Co1511 Co    0.37982   0.74036   0.38010   0.00000  Uiso   1.00
Co1512 Co    0.37982   0.74036   0.61990   0.00000  Uiso   1.00
Co1513 Co    0.25964   0.62018   0.38010   0.00000  Uiso   1.00
Co1514 Co    0.46995   0.37982   0.76978   0.00000  Uiso   1.00
Co1515 Co    0.62018   0.46995   0.76978   0.00000  Uiso   1.00
Co1516 Co    0.46995   0.62018   0.76978   0.00000  Uiso   1.00
Co1517 Co    0.37982   0.46995   0.76978   0.00000  Uiso   1.00
Co1518 Co    0.46995   0.37982   0.23022   0.00000  Uiso   1.00
Co1519 Co    0.37982   0.46995   0.23022   0.00000  Uiso   1.00
Co1520 Co    0.46995   0.62018   0.23022   0.00000  Uiso   1.00
Co1521 Co    0.62018   0.46995   0.23022   0.00000  Uiso   1.00
Co1522 Co    0.53005   0.37982   0.76978   0.00000  Uiso   1.00
Co1523 Co    0.53005   0.62018   0.76978   0.00000  Uiso   1.00
Co1524 Co    0.37982   0.53005   0.76978   0.00000  Uiso   1.00
Co1525 Co    0.62018   0.53005   0.76978   0.00000  Uiso   1.00
Co1526 Co    0.53005   0.37982   0.23022   0.00000  Uiso   1.00
Co1527 Co    0.37982   0.53005   0.23022   0.00000  Uiso   1.00
Co1528 Co    0.62018   0.53005   0.23022   0.00000  Uiso   1.00
Co1529 Co    0.53005   0.62018   0.23022   0.00000  Uiso   1.00
Co1530 Co    0.50000   0.28968   0.70983   0.00000  Uiso   1.00
Co1531 Co    0.28968   0.50000   0.70983   0.00000  Uiso   1.00
Co1532 Co    0.50000   0.28968   0.29017   0.00000  Uiso   1.00
Co1533 Co    0.28968   0.50000   0.29017   0.00000  Uiso   1.00
Co1534 Co    0.71032   0.50000   0.29017   0.00000  Uiso   1.00
Co1535 Co    0.50000   0.71032   0.70983   0.00000  Uiso   1.00
Co1536 Co    0.50000   0.71032   0.29017   0.00000  Uiso   1.00
Co1537 Co    0.71032   0.50000   0.70983   0.00000  Uiso   1.00
Co1538 Co    0.40986   0.25964   0.64988   0.00000  Uiso   1.00
Co1539 Co    0.25964   0.40986   0.64988   0.00000  Uiso   1.00
Co1540 Co    0.74036   0.40986   0.35012   0.00000  Uiso   1.00
Co1541 Co    0.40986   0.25964   0.35012   0.00000  Uiso   1.00
Co1542 Co    0.74036   0.40986   0.64988   0.00000  Uiso   1.00
Co1543 Co    0.40986   0.74036   0.64988   0.00000  Uiso   1.00
Co1544 Co    0.40986   0.74036   0.35012   0.00000  Uiso   1.00
Co1545 Co    0.25964   0.40986   0.35012   0.00000  Uiso   1.00
Co1546 Co    0.59014   0.25964   0.64988   0.00000  Uiso   1.00
Co1547 Co    0.25964   0.59014   0.64988   0.00000  Uiso   1.00
Co1548 Co    0.74036   0.59014   0.35012   0.00000  Uiso   1.00
Co1549 Co    0.74036   0.59014   0.64988   0.00000  Uiso   1.00
Co1550 Co    0.59014   0.25964   0.35012   0.00000  Uiso   1.00
Co1551 Co    0.59014   0.74036   0.64988   0.00000  Uiso   1.00
Co1552 Co    0.59014   0.74036   0.35012   0.00000  Uiso   1.00
Co1553 Co    0.25964   0.59014   0.35012   0.00000  Uiso   1.00
Co1554 Co    0.74036   0.34977   0.41007   0.00000  Uiso   1.00
Co1555 Co    0.34977   0.25964   0.58993   0.00000  Uiso   1.00
Co1556 Co    0.74036   0.34977   0.58993   0.00000  Uiso   1.00
Co1557 Co    0.34977   0.74036   0.58993   0.00000  Uiso   1.00
Co1558 Co    0.34977   0.25964   0.41007   0.00000  Uiso   1.00
Co1559 Co    0.34977   0.74036   0.41007   0.00000  Uiso   1.00
Co1560 Co    0.25964   0.34977   0.58993   0.00000  Uiso   1.00
Co1561 Co    0.25964   0.34977   0.41007   0.00000  Uiso   1.00
Co1562 Co    0.65023   0.25964   0.58993   0.00000  Uiso   1.00
Co1563 Co    0.65023   0.25964   0.41007   0.00000  Uiso   1.00
Co1564 Co    0.74036   0.65023   0.41007   0.00000  Uiso   1.00
Co1565 Co    0.65023   0.74036   0.41007   0.00000  Uiso   1.00
Co1566 Co    0.74036   0.65023   0.58993   0.00000  Uiso   1.00
Co1567 Co    0.65023   0.74036   0.58993   0.00000  Uiso   1.00
Co1568 Co    0.25964   0.65023   0.58993   0.00000  Uiso   1.00
Co1569 Co    0.25964   0.65023   0.41007   0.00000  Uiso   1.00
Co1570 Co    0.37982   0.22959   0.47002   0.00000  Uiso   1.00
Co1571 Co    0.37982   0.22959   0.52998   0.00000  Uiso   1.00
Co1572 Co    0.62018   0.22959   0.52998   0.00000  Uiso   1.00
Co1573 Co    0.22959   0.37982   0.47002   0.00000  Uiso   1.00
Co1574 Co    0.22959   0.37982   0.52998   0.00000  Uiso   1.00
Co1575 Co    0.62018   0.22959   0.47002   0.00000  Uiso   1.00
Co1576 Co    0.22959   0.62018   0.52998   0.00000  Uiso   1.00
Co1577 Co    0.22959   0.62018   0.47002   0.00000  Uiso   1.00
Co1578 Co    0.77041   0.37982   0.52998   0.00000  Uiso   1.00
Co1579 Co    0.62018   0.77041   0.47002   0.00000  Uiso   1.00
Co1580 Co    0.77041   0.37982   0.47002   0.00000  Uiso   1.00
Co1581 Co    0.62018   0.77041   0.52998   0.00000  Uiso   1.00
Co1582 Co    0.77041   0.62018   0.52998   0.00000  Uiso   1.00
Co1583 Co    0.77041   0.62018   0.47002   0.00000  Uiso   1.00
Co1584 Co    0.37982   0.77041   0.52998   0.00000  Uiso   1.00
Co1585 Co    0.37982   0.77041   0.47002   0.00000  Uiso   1.00
Co1586 Co    0.50000   0.31973   0.73981   0.00000  Uiso   1.00
Co1587 Co    0.31973   0.50000   0.73981   0.00000  Uiso   1.00
Co1588 Co    0.68027   0.50000   0.73981   0.00000  Uiso   1.00
Co1589 Co    0.50000   0.68027   0.73981   0.00000  Uiso   1.00
Co1590 Co    0.68027   0.50000   0.26019   0.00000  Uiso   1.00
Co1591 Co    0.50000   0.31973   0.26019   0.00000  Uiso   1.00
Co1592 Co    0.50000   0.68027   0.26019   0.00000  Uiso   1.00
Co1593 Co    0.31973   0.50000   0.26019   0.00000  Uiso   1.00
Co1594 Co    0.74036   0.31973   0.50000   0.00000  Uiso   1.00
Co1595 Co    0.50000   0.19955   0.50000   0.00000  Uiso   1.00
Co1596 Co    0.25964   0.31973   0.50000   0.00000  Uiso   1.00
Co1597 Co    0.68027   0.25964   0.50000   0.00000  Uiso   1.00
Co1598 Co    0.31973   0.25964   0.50000   0.00000  Uiso   1.00
Co1599 Co    0.80045   0.50000   0.50000   0.00000  Uiso   1.00
Co1600 Co    0.25964   0.68027   0.50000   0.00000  Uiso   1.00
Co1601 Co    0.74036   0.68027   0.50000   0.00000  Uiso   1.00
Co1602 Co    0.31973   0.74036   0.50000   0.00000  Uiso   1.00
Co1603 Co    0.68027   0.74036   0.50000   0.00000  Uiso   1.00
Co1604 Co    0.19955   0.50000   0.50000   0.00000  Uiso   1.00
Co1605 Co    0.50000   0.80045   0.50000   0.00000  Uiso   1.00
Co1606 Co    0.46995   0.46995   0.79976   0.00000  Uiso   1.00
Co1607 Co    0.46995   0.46995   0.20024   0.00000  Uiso   1.00
Co1608 Co    0.53005   0.46995   0.79976   0.00000  Uiso   1.00
Co1609 Co    0.46995   0.53005   0.79976   0.00000  Uiso   1.00
Co1610 Co    0.53005   0.46995   0.20024   0.00000  Uiso   1.00
Co1611 Co    0.46995   0.53005   0.20024   0.00000  Uiso   1.00
Co1612 Co    0.53005   0.53005   0.79976   0.00000  Uiso   1.00
Co1613 Co    0.53005   0.53005   0.20024   0.00000  Uiso   1.00
Co1614 Co    0.43991   0.28968   0.70983   0.00000  Uiso   1.00
Co1615 Co    0.56009   0.28968   0.70983   0.00000  Uiso   1.00
Co1616 Co    0.28968   0.43991   0.70983   0.00000  Uiso   1.00
Co1617 Co    0.28968   0.56009   0.70983   0.00000  Uiso   1.00
Co1618 Co    0.28968   0.43991   0.29017   0.00000  Uiso   1.00
Co1619 Co    0.43991   0.28968   0.29017   0.00000  Uiso   1.00
Co1620 Co    0.56009   0.28968   0.29017   0.00000  Uiso   1.00
Co1621 Co    0.28968   0.56009   0.29017   0.00000  Uiso   1.00
Co1622 Co    0.43991   0.71032   0.29017   0.00000  Uiso   1.00
Co1623 Co    0.71032   0.43991   0.29017   0.00000  Uiso   1.00
Co1624 Co    0.71032   0.43991   0.70983   0.00000  Uiso   1.00
Co1625 Co    0.56009   0.71032   0.70983   0.00000  Uiso   1.00
Co1626 Co    0.56009   0.71032   0.29017   0.00000  Uiso   1.00
Co1627 Co    0.71032   0.56009   0.29017   0.00000  Uiso   1.00
Co1628 Co    0.71032   0.56009   0.70983   0.00000  Uiso   1.00
Co1629 Co    0.43991   0.71032   0.70983   0.00000  Uiso   1.00
Co1630 Co    0.28968   0.28968   0.44005   0.00000  Uiso   1.00
Co1631 Co    0.28968   0.28968   0.55995   0.00000  Uiso   1.00
Co1632 Co    0.71032   0.28968   0.55995   0.00000  Uiso   1.00
Co1633 Co    0.71032   0.28968   0.44005   0.00000  Uiso   1.00
Co1634 Co    0.28968   0.71032   0.55995   0.00000  Uiso   1.00
Co1635 Co    0.28968   0.71032   0.44005   0.00000  Uiso   1.00
Co1636 Co    0.71032   0.71032   0.55995   0.00000  Uiso   1.00
Co1637 Co    0.71032   0.71032   0.44005   0.00000  Uiso   1.00
Co1638 Co    0.46995   0.19955   0.52998   0.00000  Uiso   1.00
Co1639 Co    0.19955   0.46995   0.52998   0.00000  Uiso   1.00
Co1640 Co    0.46995   0.19955   0.47002   0.00000  Uiso   1.00
Co1641 Co    0.19955   0.46995   0.47002   0.00000  Uiso   1.00
Co1642 Co    0.80045   0.46995   0.47002   0.00000  Uiso   1.00
Co1643 Co    0.80045   0.46995   0.52998   0.00000  Uiso   1.00
Co1644 Co    0.46995   0.80045   0.47002   0.00000  Uiso   1.00
Co1645 Co    0.46995   0.80045   0.52998   0.00000  Uiso   1.00
Co1646 Co    0.53005   0.19955   0.52998   0.00000  Uiso   1.00
Co1647 Co    0.53005   0.19955   0.47002   0.00000  Uiso   1.00
Co1648 Co    0.80045   0.53005   0.52998   0.00000  Uiso   1.00
Co1649 Co    0.19955   0.53005   0.47002   0.00000  Uiso   1.00
Co1650 Co    0.80045   0.53005   0.47002   0.00000  Uiso   1.00
Co1651 Co    0.19955   0.53005   0.52998   0.00000  Uiso   1.00
Co1652 Co    0.53005   0.80045   0.52998   0.00000  Uiso   1.00
Co1653 Co    0.53005   0.80045   0.47002   0.00000  Uiso   1.00
Co1654 Co    0.43991   0.31973   0.73981   0.00000  Uiso   1.00
Co1655 Co    0.31973   0.43991   0.73981   0.00000  Uiso   1.00
Co1656 Co    0.56009   0.31973   0.73981   0.00000  Uiso   1.00
Co1657 Co    0.56009   0.68027   0.73981   0.00000  Uiso   1.00
Co1658 Co    0.68027   0.43991   0.73981   0.00000  Uiso   1.00
Co1659 Co    0.43991   0.68027   0.73981   0.00000  Uiso   1.00
Co1660 Co    0.31973   0.56009   0.73981   0.00000  Uiso   1.00
Co1661 Co    0.68027   0.56009   0.73981   0.00000  Uiso   1.00
Co1662 Co    0.68027   0.43991   0.26019   0.00000  Uiso   1.00
Co1663 Co    0.68027   0.56009   0.26019   0.00000  Uiso   1.00
Co1664 Co    0.43991   0.68027   0.26019   0.00000  Uiso   1.00
Co1665 Co    0.56009   0.68027   0.26019   0.00000  Uiso   1.00
Co1666 Co    0.43991   0.31973   0.26019   0.00000  Uiso   1.00
Co1667 Co    0.31973   0.43991   0.26019   0.00000  Uiso   1.00
Co1668 Co    0.56009   0.31973   0.26019   0.00000  Uiso   1.00
Co1669 Co    0.31973   0.56009   0.26019   0.00000  Uiso   1.00
Co1670 Co    0.43991   0.19955   0.50000   0.00000  Uiso   1.00
Co1671 Co    0.56009   0.19955   0.50000   0.00000  Uiso   1.00
Co1672 Co    0.80045   0.43991   0.50000   0.00000  Uiso   1.00
Co1673 Co    0.19955   0.43991   0.50000   0.00000  Uiso   1.00
Co1674 Co    0.56009   0.80045   0.50000   0.00000  Uiso   1.00
Co1675 Co    0.80045   0.56009   0.50000   0.00000  Uiso   1.00
Co1676 Co    0.19955   0.56009   0.50000   0.00000  Uiso   1.00
Co1677 Co    0.43991   0.80045   0.50000   0.00000  Uiso   1.00
Co1678 Co    0.34977   0.50000   0.76978   0.00000  Uiso   1.00
Co1679 Co    0.50000   0.34977   0.76978   0.00000  Uiso   1.00
Co1680 Co    0.50000   0.34977   0.23022   0.00000  Uiso   1.00
Co1681 Co    0.34977   0.50000   0.23022   0.00000  Uiso   1.00
Co1682 Co    0.40986   0.37982   0.76978   0.00000  Uiso   1.00
Co1683 Co    0.62018   0.40986   0.76978   0.00000  Uiso   1.00
Co1684 Co    0.37982   0.40986   0.76978   0.00000  Uiso   1.00
Co1685 Co    0.40986   0.62018   0.76978   0.00000  Uiso   1.00
Co1686 Co    0.40986   0.37982   0.23022   0.00000  Uiso   1.00
Co1687 Co    0.37982   0.40986   0.23022   0.00000  Uiso   1.00
Co1688 Co    0.62018   0.40986   0.23022   0.00000  Uiso   1.00
Co1689 Co    0.40986   0.62018   0.23022   0.00000  Uiso   1.00
Co1690 Co    0.59014   0.37982   0.76978   0.00000  Uiso   1.00
Co1691 Co    0.62018   0.59014   0.76978   0.00000  Uiso   1.00
Co1692 Co    0.59014   0.62018   0.76978   0.00000  Uiso   1.00
Co1693 Co    0.37982   0.59014   0.76978   0.00000  Uiso   1.00
Co1694 Co    0.59014   0.37982   0.23022   0.00000  Uiso   1.00
Co1695 Co    0.37982   0.59014   0.23022   0.00000  Uiso   1.00
Co1696 Co    0.59014   0.62018   0.23022   0.00000  Uiso   1.00
Co1697 Co    0.62018   0.59014   0.23022   0.00000  Uiso   1.00
Co1698 Co    0.65023   0.50000   0.76978   0.00000  Uiso   1.00
Co1699 Co    0.50000   0.65023   0.76978   0.00000  Uiso   1.00
Co1700 Co    0.65023   0.50000   0.23022   0.00000  Uiso   1.00
Co1701 Co    0.50000   0.65023   0.23022   0.00000  Uiso   1.00
Co1702 Co    0.50000   0.22959   0.64988   0.00000  Uiso   1.00
Co1703 Co    0.22959   0.50000   0.64988   0.00000  Uiso   1.00
Co1704 Co    0.50000   0.22959   0.35012   0.00000  Uiso   1.00
Co1705 Co    0.22959   0.50000   0.35012   0.00000  Uiso   1.00
Co1706 Co    0.77041   0.50000   0.35012   0.00000  Uiso   1.00
Co1707 Co    0.77041   0.50000   0.64988   0.00000  Uiso   1.00
Co1708 Co    0.50000   0.77041   0.35012   0.00000  Uiso   1.00
Co1709 Co    0.50000   0.77041   0.64988   0.00000  Uiso   1.00
Co1710 Co    0.22959   0.37982   0.58993   0.00000  Uiso   1.00
Co1711 Co    0.37982   0.22959   0.58993   0.00000  Uiso   1.00
Co1712 Co    0.62018   0.22959   0.58993   0.00000  Uiso   1.00
Co1713 Co    0.22959   0.37982   0.41007   0.00000  Uiso   1.00
Co1714 Co    0.62018   0.22959   0.41007   0.00000  Uiso   1.00
Co1715 Co    0.37982   0.22959   0.41007   0.00000  Uiso   1.00
Co1716 Co    0.22959   0.62018   0.58993   0.00000  Uiso   1.00
Co1717 Co    0.22959   0.62018   0.41007   0.00000  Uiso   1.00
Co1718 Co    0.77041   0.37982   0.58993   0.00000  Uiso   1.00
Co1719 Co    0.77041   0.37982   0.41007   0.00000  Uiso   1.00
Co1720 Co    0.62018   0.77041   0.41007   0.00000  Uiso   1.00
Co1721 Co    0.62018   0.77041   0.58993   0.00000  Uiso   1.00
Co1722 Co    0.37982   0.77041   0.58993   0.00000  Uiso   1.00
Co1723 Co    0.77041   0.62018   0.58993   0.00000  Uiso   1.00
Co1724 Co    0.37982   0.77041   0.41007   0.00000  Uiso   1.00
Co1725 Co    0.77041   0.62018   0.41007   0.00000  Uiso   1.00
Co1726 Co    0.40986   0.46995   0.79976   0.00000  Uiso   1.00
Co1727 Co    0.46995   0.40986   0.79976   0.00000  Uiso   1.00
Co1728 Co    0.40986   0.46995   0.20024   0.00000  Uiso   1.00
Co1729 Co    0.46995   0.40986   0.20024   0.00000  Uiso   1.00
Co1730 Co    0.53005   0.40986   0.79976   0.00000  Uiso   1.00
Co1731 Co    0.40986   0.53005   0.79976   0.00000  Uiso   1.00
Co1732 Co    0.40986   0.53005   0.20024   0.00000  Uiso   1.00
Co1733 Co    0.53005   0.40986   0.20024   0.00000  Uiso   1.00
Co1734 Co    0.59014   0.46995   0.79976   0.00000  Uiso   1.00
Co1735 Co    0.59014   0.46995   0.20024   0.00000  Uiso   1.00
Co1736 Co    0.46995   0.59014   0.79976   0.00000  Uiso   1.00
Co1737 Co    0.46995   0.59014   0.20024   0.00000  Uiso   1.00
Co1738 Co    0.53005   0.59014   0.20024   0.00000  Uiso   1.00
Co1739 Co    0.59014   0.53005   0.20024   0.00000  Uiso   1.00
Co1740 Co    0.59014   0.53005   0.79976   0.00000  Uiso   1.00
Co1741 Co    0.53005   0.59014   0.79976   0.00000  Uiso   1.00
Co1742 Co    0.43991   0.34977   0.76978   0.00000  Uiso   1.00
Co1743 Co    0.34977   0.43991   0.76978   0.00000  Uiso   1.00
Co1744 Co    0.56009   0.34977   0.76978   0.00000  Uiso   1.00
Co1745 Co    0.34977   0.56009   0.76978   0.00000  Uiso   1.00
Co1746 Co    0.43991   0.34977   0.23022   0.00000  Uiso   1.00
Co1747 Co    0.56009   0.34977   0.23022   0.00000  Uiso   1.00
Co1748 Co    0.34977   0.43991   0.23022   0.00000  Uiso   1.00
Co1749 Co    0.34977   0.56009   0.23022   0.00000  Uiso   1.00
Co1750 Co    0.65023   0.43991   0.76978   0.00000  Uiso   1.00
Co1751 Co    0.56009   0.65023   0.76978   0.00000  Uiso   1.00
Co1752 Co    0.43991   0.65023   0.76978   0.00000  Uiso   1.00
Co1753 Co    0.65023   0.56009   0.76978   0.00000  Uiso   1.00
Co1754 Co    0.65023   0.56009   0.23022   0.00000  Uiso   1.00
Co1755 Co    0.65023   0.43991   0.23022   0.00000  Uiso   1.00
Co1756 Co    0.56009   0.65023   0.23022   0.00000  Uiso   1.00
Co1757 Co    0.43991   0.65023   0.23022   0.00000  Uiso   1.00
Co1758 Co    0.31973   0.34977   0.70983   0.00000  Uiso   1.00
Co1759 Co    0.34977   0.31973   0.70983   0.00000  Uiso   1.00
Co1760 Co    0.68027   0.34977   0.29017   0.00000  Uiso   1.00
Co1761 Co    0.34977   0.31973   0.29017   0.00000  Uiso   1.00
Co1762 Co    0.68027   0.34977   0.70983   0.00000  Uiso   1.00
Co1763 Co    0.31973   0.34977   0.29017   0.00000  Uiso   1.00
Co1764 Co    0.34977   0.68027   0.29017   0.00000  Uiso   1.00
Co1765 Co    0.34977   0.68027   0.70983   0.00000  Uiso   1.00
Co1766 Co    0.65023   0.31973   0.70983   0.00000  Uiso   1.00
Co1767 Co    0.65023   0.31973   0.29017   0.00000  Uiso   1.00
Co1768 Co    0.31973   0.65023   0.70983   0.00000  Uiso   1.00
Co1769 Co    0.31973   0.65023   0.29017   0.00000  Uiso   1.00
Co1770 Co    0.68027   0.65023   0.29017   0.00000  Uiso   1.00
Co1771 Co    0.65023   0.68027   0.70983   0.00000  Uiso   1.00
Co1772 Co    0.65023   0.68027   0.29017   0.00000  Uiso   1.00
Co1773 Co    0.68027   0.65023   0.70983   0.00000  Uiso   1.00
Co1774 Co    0.28968   0.34977   0.67985   0.00000  Uiso   1.00
Co1775 Co    0.34977   0.28968   0.67985   0.00000  Uiso   1.00
Co1776 Co    0.34977   0.28968   0.32015   0.00000  Uiso   1.00
Co1777 Co    0.28968   0.34977   0.32015   0.00000  Uiso   1.00
Co1778 Co    0.65023   0.28968   0.67985   0.00000  Uiso   1.00
Co1779 Co    0.28968   0.65023   0.67985   0.00000  Uiso   1.00
Co1780 Co    0.65023   0.28968   0.32015   0.00000  Uiso   1.00
Co1781 Co    0.28968   0.65023   0.32015   0.00000  Uiso   1.00
Co1782 Co    0.71032   0.34977   0.32015   0.00000  Uiso   1.00
Co1783 Co    0.71032   0.34977   0.67985   0.00000  Uiso   1.00
Co1784 Co    0.34977   0.71032   0.32015   0.00000  Uiso   1.00
Co1785 Co    0.34977   0.71032   0.67985   0.00000  Uiso   1.00
Co1786 Co    0.71032   0.65023   0.67985   0.00000  Uiso   1.00
Co1787 Co    0.71032   0.65023   0.32015   0.00000  Uiso   1.00
Co1788 Co    0.65023   0.71032   0.32015   0.00000  Uiso   1.00
Co1789 Co    0.65023   0.71032   0.67985   0.00000  Uiso   1.00
Co1790 Co    0.43991   0.22959   0.64988   0.00000  Uiso   1.00
Co1791 Co    0.22959   0.43991   0.64988   0.00000  Uiso   1.00
Co1792 Co    0.56009   0.22959   0.64988   0.00000  Uiso   1.00
Co1793 Co    0.43991   0.22959   0.35012   0.00000  Uiso   1.00
Co1794 Co    0.22959   0.56009   0.64988   0.00000  Uiso   1.00
Co1795 Co    0.56009   0.22959   0.35012   0.00000  Uiso   1.00
Co1796 Co    0.22959   0.43991   0.35012   0.00000  Uiso   1.00
Co1797 Co    0.22959   0.56009   0.35012   0.00000  Uiso   1.00
Co1798 Co    0.28968   0.31973   0.64988   0.00000  Uiso   1.00
Co1799 Co    0.31973   0.28968   0.64988   0.00000  Uiso   1.00
Co1800 Co    0.68027   0.28968   0.64988   0.00000  Uiso   1.00
Co1801 Co    0.68027   0.28968   0.35012   0.00000  Uiso   1.00
Co1802 Co    0.28968   0.68027   0.64988   0.00000  Uiso   1.00
Co1803 Co    0.28968   0.31973   0.35012   0.00000  Uiso   1.00
Co1804 Co    0.31973   0.28968   0.35012   0.00000  Uiso   1.00
Co1805 Co    0.28968   0.68027   0.35012   0.00000  Uiso   1.00
Co1806 Co    0.71032   0.31973   0.64988   0.00000  Uiso   1.00
Co1807 Co    0.71032   0.31973   0.35012   0.00000  Uiso   1.00
Co1808 Co    0.71032   0.68027   0.64988   0.00000  Uiso   1.00
Co1809 Co    0.68027   0.71032   0.64988   0.00000  Uiso   1.00
Co1810 Co    0.31973   0.71032   0.35012   0.00000  Uiso   1.00
Co1811 Co    0.68027   0.71032   0.35012   0.00000  Uiso   1.00
Co1812 Co    0.71032   0.68027   0.35012   0.00000  Uiso   1.00
Co1813 Co    0.31973   0.71032   0.64988   0.00000  Uiso   1.00
Co1814 Co    0.77041   0.43991   0.64988   0.00000  Uiso   1.00
Co1815 Co    0.77041   0.43991   0.35012   0.00000  Uiso   1.00
Co1816 Co    0.77041   0.56009   0.35012   0.00000  Uiso   1.00
Co1817 Co    0.77041   0.56009   0.64988   0.00000  Uiso   1.00
Co1818 Co    0.56009   0.77041   0.35012   0.00000  Uiso   1.00
Co1819 Co    0.56009   0.77041   0.64988   0.00000  Uiso   1.00
Co1820 Co    0.43991   0.77041   0.35012   0.00000  Uiso   1.00
Co1821 Co    0.43991   0.77041   0.64988   0.00000  Uiso   1.00
Co1822 Co    0.46995   0.19955   0.58993   0.00000  Uiso   1.00
Co1823 Co    0.46995   0.19955   0.41007   0.00000  Uiso   1.00
Co1824 Co    0.19955   0.46995   0.41007   0.00000  Uiso   1.00
Co1825 Co    0.19955   0.46995   0.58993   0.00000  Uiso   1.00
Co1826 Co    0.80045   0.46995   0.41007   0.00000  Uiso   1.00
Co1827 Co    0.80045   0.46995   0.58993   0.00000  Uiso   1.00
Co1828 Co    0.46995   0.80045   0.41007   0.00000  Uiso   1.00
Co1829 Co    0.46995   0.80045   0.58993   0.00000  Uiso   1.00
Co1830 Co    0.53005   0.19955   0.58993   0.00000  Uiso   1.00
Co1831 Co    0.53005   0.19955   0.41007   0.00000  Uiso   1.00
Co1832 Co    0.19955   0.53005   0.58993   0.00000  Uiso   1.00
Co1833 Co    0.80045   0.53005   0.41007   0.00000  Uiso   1.00
Co1834 Co    0.19955   0.53005   0.41007   0.00000  Uiso   1.00
Co1835 Co    0.80045   0.53005   0.58993   0.00000  Uiso   1.00
Co1836 Co    0.53005   0.80045   0.41007   0.00000  Uiso   1.00
Co1837 Co    0.53005   0.80045   0.58993   0.00000  Uiso   1.00
Co1838 Co    0.22959   0.34977   0.55995   0.00000  Uiso   1.00
Co1839 Co    0.34977   0.22959   0.44005   0.00000  Uiso   1.00
Co1840 Co    0.34977   0.22959   0.55995   0.00000  Uiso   1.00
Co1841 Co    0.22959   0.34977   0.44005   0.00000  Uiso   1.00
Co1842 Co    0.65023   0.22959   0.55995   0.00000  Uiso   1.00
Co1843 Co    0.65023   0.22959   0.44005   0.00000  Uiso   1.00
Co1844 Co    0.22959   0.65023   0.55995   0.00000  Uiso   1.00
Co1845 Co    0.22959   0.65023   0.44005   0.00000  Uiso   1.00
Co1846 Co    0.77041   0.34977   0.44005   0.00000  Uiso   1.00
Co1847 Co    0.77041   0.34977   0.55995   0.00000  Uiso   1.00
Co1848 Co    0.34977   0.77041   0.55995   0.00000  Uiso   1.00
Co1849 Co    0.34977   0.77041   0.44005   0.00000  Uiso   1.00
Co1850 Co    0.77041   0.65023   0.44005   0.00000  Uiso   1.00
Co1851 Co    0.77041   0.65023   0.55995   0.00000  Uiso   1.00
Co1852 Co    0.65023   0.77041   0.44005   0.00000  Uiso   1.00
Co1853 Co    0.65023   0.77041   0.55995   0.00000  Uiso   1.00
Co1854 Co    0.40986   0.19955   0.47002   0.00000  Uiso   1.00
Co1855 Co    0.40986   0.19955   0.52998   0.00000  Uiso   1.00
Co1856 Co    0.19955   0.40986   0.47002   0.00000  Uiso   1.00
Co1857 Co    0.19955   0.40986   0.52998   0.00000  Uiso   1.00
Co1858 Co    0.80045   0.40986   0.52998   0.00000  Uiso   1.00
Co1859 Co    0.80045   0.40986   0.47002   0.00000  Uiso   1.00
Co1860 Co    0.40986   0.80045   0.52998   0.00000  Uiso   1.00
Co1861 Co    0.40986   0.80045   0.47002   0.00000  Uiso   1.00
Co1862 Co    0.59014   0.19955   0.47002   0.00000  Uiso   1.00
Co1863 Co    0.59014   0.19955   0.52998   0.00000  Uiso   1.00
Co1864 Co    0.59014   0.80045   0.47002   0.00000  Uiso   1.00
Co1865 Co    0.19955   0.59014   0.52998   0.00000  Uiso   1.00
Co1866 Co    0.80045   0.59014   0.47002   0.00000  Uiso   1.00
Co1867 Co    0.19955   0.59014   0.47002   0.00000  Uiso   1.00
Co1868 Co    0.80045   0.59014   0.52998   0.00000  Uiso   1.00
Co1869 Co    0.59014   0.80045   0.52998   0.00000  Uiso   1.00
Co1870 Co    0.62018   0.28968   0.70983   0.00000  Uiso   1.00
Co1871 Co    0.37982   0.28968   0.70983   0.00000  Uiso   1.00
Co1872 Co    0.28968   0.37982   0.70983   0.00000  Uiso   1.00
Co1873 Co    0.62018   0.28968   0.29017   0.00000  Uiso   1.00
Co1874 Co    0.37982   0.28968   0.29017   0.00000  Uiso   1.00
Co1875 Co    0.28968   0.62018   0.70983   0.00000  Uiso   1.00
Co1876 Co    0.28968   0.62018   0.29017   0.00000  Uiso   1.00
Co1877 Co    0.28968   0.37982   0.29017   0.00000  Uiso   1.00
Co1878 Co    0.46995   0.25964   0.70983   0.00000  Uiso   1.00
Co1879 Co    0.25964   0.46995   0.70983   0.00000  Uiso   1.00
Co1880 Co    0.46995   0.25964   0.29017   0.00000  Uiso   1.00
Co1881 Co    0.74036   0.46995   0.29017   0.00000  Uiso   1.00
Co1882 Co    0.74036   0.46995   0.70983   0.00000  Uiso   1.00
Co1883 Co    0.46995   0.74036   0.70983   0.00000  Uiso   1.00
Co1884 Co    0.46995   0.74036   0.29017   0.00000  Uiso   1.00
Co1885 Co    0.25964   0.46995   0.29017   0.00000  Uiso   1.00
Co1886 Co    0.53005   0.25964   0.70983   0.00000  Uiso   1.00
Co1887 Co    0.25964   0.53005   0.70983   0.00000  Uiso   1.00
Co1888 Co    0.53005   0.25964   0.29017   0.00000  Uiso   1.00
Co1889 Co    0.53005   0.74036   0.70983   0.00000  Uiso   1.00
Co1890 Co    0.25964   0.53005   0.29017   0.00000  Uiso   1.00
Co1891 Co    0.74036   0.53005   0.70983   0.00000  Uiso   1.00
Co1892 Co    0.74036   0.53005   0.29017   0.00000  Uiso   1.00
Co1893 Co    0.53005   0.74036   0.29017   0.00000  Uiso   1.00
Co1894 Co    0.71032   0.37982   0.29017   0.00000  Uiso   1.00
Co1895 Co    0.62018   0.71032   0.70983   0.00000  Uiso   1.00
Co1896 Co    0.71032   0.37982   0.70983   0.00000  Uiso   1.00
Co1897 Co    0.37982   0.71032   0.29017   0.00000  Uiso   1.00
Co1898 Co    0.62018   0.71032   0.29017   0.00000  Uiso   1.00
Co1899 Co    0.71032   0.62018   0.70983   0.00000  Uiso   1.00
Co1900 Co    0.71032   0.62018   0.29017   0.00000  Uiso   1.00
Co1901 Co    0.37982   0.71032   0.70983   0.00000  Uiso   1.00
Co1902 Co    0.34977   0.25964   0.64988   0.00000  Uiso   1.00
Co1903 Co    0.74036   0.34977   0.35012   0.00000  Uiso   1.00
Co1904 Co    0.74036   0.34977   0.64988   0.00000  Uiso   1.00
Co1905 Co    0.25964   0.34977   0.64988   0.00000  Uiso   1.00
Co1906 Co    0.34977   0.25964   0.35012   0.00000  Uiso   1.00
Co1907 Co    0.25964   0.34977   0.35012   0.00000  Uiso   1.00
Co1908 Co    0.34977   0.74036   0.64988   0.00000  Uiso   1.00
Co1909 Co    0.34977   0.74036   0.35012   0.00000  Uiso   1.00
Co1910 Co    0.65023   0.25964   0.64988   0.00000  Uiso   1.00
Co1911 Co    0.65023   0.25964   0.35012   0.00000  Uiso   1.00
Co1912 Co    0.74036   0.65023   0.35012   0.00000  Uiso   1.00
Co1913 Co    0.25964   0.65023   0.64988   0.00000  Uiso   1.00
Co1914 Co    0.74036   0.65023   0.64988   0.00000  Uiso   1.00
Co1915 Co    0.65023   0.74036   0.64988   0.00000  Uiso   1.00
Co1916 Co    0.25964   0.65023   0.35012   0.00000  Uiso   1.00
Co1917 Co    0.65023   0.74036   0.35012   0.00000  Uiso   1.00
Co1918 Co    0.25964   0.28968   0.52998   0.00000  Uiso   1.00
Co1919 Co    0.74036   0.28968   0.47002   0.00000  Uiso   1.00
Co1920 Co    0.25964   0.28968   0.47002   0.00000  Uiso   1.00
Co1921 Co    0.28968   0.25964   0.47002   0.00000  Uiso   1.00
Co1922 Co    0.74036   0.28968   0.52998   0.00000  Uiso   1.00
Co1923 Co    0.28968   0.25964   0.52998   0.00000  Uiso   1.00
Co1924 Co    0.28968   0.74036   0.52998   0.00000  Uiso   1.00
Co1925 Co    0.28968   0.74036   0.47002   0.00000  Uiso   1.00
Co1926 Co    0.71032   0.25964   0.52998   0.00000  Uiso   1.00
Co1927 Co    0.71032   0.25964   0.47002   0.00000  Uiso   1.00
Co1928 Co    0.74036   0.71032   0.52998   0.00000  Uiso   1.00
Co1929 Co    0.71032   0.74036   0.52998   0.00000  Uiso   1.00
Co1930 Co    0.74036   0.71032   0.47002   0.00000  Uiso   1.00
Co1931 Co    0.71032   0.74036   0.47002   0.00000  Uiso   1.00
Co1932 Co    0.25964   0.71032   0.52998   0.00000  Uiso   1.00
Co1933 Co    0.25964   0.71032   0.47002   0.00000  Uiso   1.00
Co1934 Co    0.37982   0.31973   0.73981   0.00000  Uiso   1.00
Co1935 Co    0.31973   0.37982   0.73981   0.00000  Uiso   1.00
Co1936 Co    0.62018   0.31973   0.73981   0.00000  Uiso   1.00
Co1937 Co    0.31973   0.62018   0.73981   0.00000  Uiso   1.00
Co1938 Co    0.62018   0.31973   0.26019   0.00000  Uiso   1.00
Co1939 Co    0.68027   0.62018   0.73981   0.00000  Uiso   1.00
Co1940 Co    0.68027   0.37982   0.73981   0.00000  Uiso   1.00
Co1941 Co    0.62018   0.68027   0.73981   0.00000  Uiso   1.00
Co1942 Co    0.68027   0.37982   0.26019   0.00000  Uiso   1.00
Co1943 Co    0.37982   0.68027   0.73981   0.00000  Uiso   1.00
Co1944 Co    0.62018   0.68027   0.26019   0.00000  Uiso   1.00
Co1945 Co    0.31973   0.62018   0.26019   0.00000  Uiso   1.00
Co1946 Co    0.68027   0.62018   0.26019   0.00000  Uiso   1.00
Co1947 Co    0.37982   0.31973   0.26019   0.00000  Uiso   1.00
Co1948 Co    0.31973   0.37982   0.26019   0.00000  Uiso   1.00
Co1949 Co    0.37982   0.68027   0.26019   0.00000  Uiso   1.00
Co1950 Co    0.68027   0.25964   0.61990   0.00000  Uiso   1.00
Co1951 Co    0.31973   0.25964   0.61990   0.00000  Uiso   1.00
Co1952 Co    0.50000   0.19955   0.61990   0.00000  Uiso   1.00
Co1953 Co    0.25964   0.31973   0.61990   0.00000  Uiso   1.00
Co1954 Co    0.74036   0.31973   0.61990   0.00000  Uiso   1.00
Co1955 Co    0.68027   0.25964   0.38010   0.00000  Uiso   1.00
Co1956 Co    0.74036   0.31973   0.38010   0.00000  Uiso   1.00
Co1957 Co    0.50000   0.19955   0.38010   0.00000  Uiso   1.00
Co1958 Co    0.19955   0.50000   0.61990   0.00000  Uiso   1.00
Co1959 Co    0.74036   0.68027   0.38010   0.00000  Uiso   1.00
Co1960 Co    0.80045   0.50000   0.38010   0.00000  Uiso   1.00
Co1961 Co    0.31973   0.74036   0.38010   0.00000  Uiso   1.00
Co1962 Co    0.31973   0.74036   0.61990   0.00000  Uiso   1.00
Co1963 Co    0.25964   0.68027   0.61990   0.00000  Uiso   1.00
Co1964 Co    0.25964   0.31973   0.38010   0.00000  Uiso   1.00
Co1965 Co    0.68027   0.74036   0.38010   0.00000  Uiso   1.00
Co1966 Co    0.31973   0.25964   0.38010   0.00000  Uiso   1.00
Co1967 Co    0.74036   0.68027   0.61990   0.00000  Uiso   1.00
Co1968 Co    0.68027   0.74036   0.61990   0.00000  Uiso   1.00
Co1969 Co    0.25964   0.68027   0.38010   0.00000  Uiso   1.00
Co1970 Co    0.19955   0.50000   0.38010   0.00000  Uiso   1.00
Co1971 Co    0.80045   0.50000   0.61990   0.00000  Uiso   1.00
Co1972 Co    0.50000   0.80045   0.38010   0.00000  Uiso   1.00
Co1973 Co    0.50000   0.80045   0.61990   0.00000  Uiso   1.00
Co1974 Co    0.37982   0.19955   0.50000   0.00000  Uiso   1.00
Co1975 Co    0.62018   0.19955   0.50000   0.00000  Uiso   1.00
Co1976 Co    0.19955   0.37982   0.50000   0.00000  Uiso   1.00
Co1977 Co    0.62018   0.80045   0.50000   0.00000  Uiso   1.00
Co1978 Co    0.80045   0.37982   0.50000   0.00000  Uiso   1.00
Co1979 Co    0.19955   0.62018   0.50000   0.00000  Uiso   1.00
Co1980 Co    0.80045   0.62018   0.50000   0.00000  Uiso   1.00
Co1981 Co    0.37982   0.80045   0.50000   0.00000  Uiso   1.00
Co1982 Co    0.40986   0.40986   0.79976   0.00000  Uiso   1.00
Co1983 Co    0.40986   0.40986   0.20024   0.00000  Uiso   1.00
Co1984 Co    0.40986   0.59014   0.20024   0.00000  Uiso   1.00
Co1985 Co    0.59014   0.40986   0.79976   0.00000  Uiso   1.00
Co1986 Co    0.59014   0.40986   0.20024   0.00000  Uiso   1.00
Co1987 Co    0.40986   0.59014   0.79976   0.00000  Uiso   1.00
Co1988 Co    0.59014   0.59014   0.20024   0.00000  Uiso   1.00
Co1989 Co    0.59014   0.59014   0.79976   0.00000  Uiso   1.00
Co1990 Co    0.31973   0.46995   0.76978   0.00000  Uiso   1.00
Co1991 Co    0.46995   0.31973   0.76978   0.00000  Uiso   1.00
Co1992 Co    0.68027   0.46995   0.76978   0.00000  Uiso   1.00
Co1993 Co    0.46995   0.31973   0.23022   0.00000  Uiso   1.00
Co1994 Co    0.46995   0.68027   0.76978   0.00000  Uiso   1.00
Co1995 Co    0.31973   0.46995   0.23022   0.00000  Uiso   1.00
Co1996 Co    0.46995   0.68027   0.23022   0.00000  Uiso   1.00
Co1997 Co    0.68027   0.46995   0.23022   0.00000  Uiso   1.00
Co1998 Co    0.53005   0.31973   0.76978   0.00000  Uiso   1.00
Co1999 Co    0.31973   0.53005   0.76978   0.00000  Uiso   1.00
Co2000 Co    0.68027   0.53005   0.76978   0.00000  Uiso   1.00
Co2001 Co    0.53005   0.68027   0.76978   0.00000  Uiso   1.00
Co2002 Co    0.53005   0.31973   0.23022   0.00000  Uiso   1.00
Co2003 Co    0.31973   0.53005   0.23022   0.00000  Uiso   1.00
Co2004 Co    0.68027   0.53005   0.23022   0.00000  Uiso   1.00
Co2005 Co    0.53005   0.68027   0.23022   0.00000  Uiso   1.00
Co2006 Co    0.46995   0.22959   0.67985   0.00000  Uiso   1.00
Co2007 Co    0.22959   0.46995   0.67985   0.00000  Uiso   1.00
Co2008 Co    0.46995   0.22959   0.32015   0.00000  Uiso   1.00
Co2009 Co    0.22959   0.46995   0.32015   0.00000  Uiso   1.00
Co2010 Co    0.53005   0.22959   0.67985   0.00000  Uiso   1.00
Co2011 Co    0.22959   0.53005   0.67985   0.00000  Uiso   1.00
Co2012 Co    0.53005   0.22959   0.32015   0.00000  Uiso   1.00
Co2013 Co    0.22959   0.53005   0.32015   0.00000  Uiso   1.00
Co2014 Co    0.77041   0.46995   0.67985   0.00000  Uiso   1.00
Co2015 Co    0.77041   0.46995   0.32015   0.00000  Uiso   1.00
Co2016 Co    0.46995   0.77041   0.67985   0.00000  Uiso   1.00
Co2017 Co    0.46995   0.77041   0.32015   0.00000  Uiso   1.00
Co2018 Co    0.77041   0.53005   0.67985   0.00000  Uiso   1.00
Co2019 Co    0.77041   0.53005   0.32015   0.00000  Uiso   1.00
Co2020 Co    0.53005   0.77041   0.67985   0.00000  Uiso   1.00
Co2021 Co    0.53005   0.77041   0.32015   0.00000  Uiso   1.00
Co2022 Co    0.40986   0.19955   0.41007   0.00000  Uiso   1.00
Co2023 Co    0.40986   0.19955   0.58993   0.00000  Uiso   1.00
Co2024 Co    0.19955   0.40986   0.58993   0.00000  Uiso   1.00
Co2025 Co    0.80045   0.40986   0.58993   0.00000  Uiso   1.00
Co2026 Co    0.19955   0.40986   0.41007   0.00000  Uiso   1.00
Co2027 Co    0.80045   0.40986   0.41007   0.00000  Uiso   1.00
Co2028 Co    0.40986   0.80045   0.41007   0.00000  Uiso   1.00
Co2029 Co    0.40986   0.80045   0.58993   0.00000  Uiso   1.00
Co2030 Co    0.59014   0.19955   0.58993   0.00000  Uiso   1.00
Co2031 Co    0.59014   0.19955   0.41007   0.00000  Uiso   1.00
Co2032 Co    0.19955   0.59014   0.58993   0.00000  Uiso   1.00
Co2033 Co    0.80045   0.59014   0.41007   0.00000  Uiso   1.00
Co2034 Co    0.19955   0.59014   0.41007   0.00000  Uiso   1.00
Co2035 Co    0.59014   0.80045   0.58993   0.00000  Uiso   1.00
Co2036 Co    0.80045   0.59014   0.58993   0.00000  Uiso   1.00
Co2037 Co    0.59014   0.80045   0.41007   0.00000  Uiso   1.00
Co2038 Co    0.31973   0.22959   0.52998   0.00000  Uiso   1.00
Co2039 Co    0.31973   0.22959   0.47002   0.00000  Uiso   1.00
Co2040 Co    0.22959   0.31973   0.47002   0.00000  Uiso   1.00
Co2041 Co    0.68027   0.22959   0.47002   0.00000  Uiso   1.00
Co2042 Co    0.22959   0.31973   0.52998   0.00000  Uiso   1.00
Co2043 Co    0.68027   0.22959   0.52998   0.00000  Uiso   1.00
Co2044 Co    0.22959   0.68027   0.52998   0.00000  Uiso   1.00
Co2045 Co    0.22959   0.68027   0.47002   0.00000  Uiso   1.00
Co2046 Co    0.77041   0.31973   0.52998   0.00000  Uiso   1.00
Co2047 Co    0.77041   0.31973   0.47002   0.00000  Uiso   1.00
Co2048 Co    0.77041   0.68027   0.47002   0.00000  Uiso   1.00
Co2049 Co    0.31973   0.77041   0.47002   0.00000  Uiso   1.00
Co2050 Co    0.31973   0.77041   0.52998   0.00000  Uiso   1.00
Co2051 Co    0.77041   0.68027   0.52998   0.00000  Uiso   1.00
Co2052 Co    0.68027   0.77041   0.47002   0.00000  Uiso   1.00
Co2053 Co    0.68027   0.77041   0.52998   0.00000  Uiso   1.00
Co2054 Co    0.56009   0.19955   0.61990   0.00000  Uiso   1.00
Co2055 Co    0.43991   0.19955   0.61990   0.00000  Uiso   1.00
Co2056 Co    0.19955   0.43991   0.61990   0.00000  Uiso   1.00
Co2057 Co    0.43991   0.19955   0.38010   0.00000  Uiso   1.00
Co2058 Co    0.56009   0.19955   0.38010   0.00000  Uiso   1.00
Co2059 Co    0.19955   0.43991   0.38010   0.00000  Uiso   1.00
Co2060 Co    0.80045   0.43991   0.61990   0.00000  Uiso   1.00
Co2061 Co    0.56009   0.80045   0.38010   0.00000  Uiso   1.00
Co2062 Co    0.19955   0.56009   0.61990   0.00000  Uiso   1.00
Co2063 Co    0.80045   0.43991   0.38010   0.00000  Uiso   1.00
Co2064 Co    0.80045   0.56009   0.61990   0.00000  Uiso   1.00
Co2065 Co    0.80045   0.56009   0.38010   0.00000  Uiso   1.00
Co2066 Co    0.43991   0.80045   0.38010   0.00000  Uiso   1.00
Co2067 Co    0.19955   0.56009   0.38010   0.00000  Uiso   1.00
Co2068 Co    0.56009   0.80045   0.61990   0.00000  Uiso   1.00
Co2069 Co    0.43991   0.80045   0.61990   0.00000  Uiso   1.00
Co2070 Co    0.46995   0.50000   0.82973   0.00000  Uiso   1.00
Co2071 Co    0.50000   0.46995   0.82973   0.00000  Uiso   1.00
Co2072 Co    0.50000   0.46995   0.17027   0.00000  Uiso   1.00
Co2073 Co    0.46995   0.50000   0.17027   0.00000  Uiso   1.00
Co2074 Co    0.53005   0.50000   0.82973   0.00000  Uiso   1.00
Co2075 Co    0.50000   0.53005   0.82973   0.00000  Uiso   1.00
Co2076 Co    0.50000   0.53005   0.17027   0.00000  Uiso   1.00
Co2077 Co    0.53005   0.50000   0.17027   0.00000  Uiso   1.00
Co2078 Co    0.37982   0.34977   0.76978   0.00000  Uiso   1.00
Co2079 Co    0.62018   0.34977   0.76978   0.00000  Uiso   1.00
Co2080 Co    0.34977   0.37982   0.76978   0.00000  Uiso   1.00
Co2081 Co    0.34977   0.62018   0.76978   0.00000  Uiso   1.00
Co2082 Co    0.34977   0.62018   0.23022   0.00000  Uiso   1.00
Co2083 Co    0.62018   0.34977   0.23022   0.00000  Uiso   1.00
Co2084 Co    0.34977   0.37982   0.23022   0.00000  Uiso   1.00
Co2085 Co    0.37982   0.34977   0.23022   0.00000  Uiso   1.00
Co2086 Co    0.65023   0.62018   0.76978   0.00000  Uiso   1.00
Co2087 Co    0.65023   0.37982   0.76978   0.00000  Uiso   1.00
Co2088 Co    0.62018   0.65023   0.76978   0.00000  Uiso   1.00
Co2089 Co    0.37982   0.65023   0.76978   0.00000  Uiso   1.00
Co2090 Co    0.65023   0.37982   0.23022   0.00000  Uiso   1.00
Co2091 Co    0.62018   0.65023   0.23022   0.00000  Uiso   1.00
Co2092 Co    0.37982   0.65023   0.23022   0.00000  Uiso   1.00
Co2093 Co    0.65023   0.62018   0.23022   0.00000  Uiso   1.00
Co2094 Co    0.40986   0.25964   0.70983   0.00000  Uiso   1.00
Co2095 Co    0.25964   0.40986   0.70983   0.00000  Uiso   1.00
Co2096 Co    0.74036   0.40986   0.29017   0.00000  Uiso   1.00
Co2097 Co    0.40986   0.25964   0.29017   0.00000  Uiso   1.00
Co2098 Co    0.25964   0.40986   0.29017   0.00000  Uiso   1.00
Co2099 Co    0.40986   0.74036   0.29017   0.00000  Uiso   1.00
Co2100 Co    0.74036   0.40986   0.70983   0.00000  Uiso   1.00
Co2101 Co    0.40986   0.74036   0.70983   0.00000  Uiso   1.00
Co2102 Co    0.59014   0.25964   0.70983   0.00000  Uiso   1.00
Co2103 Co    0.25964   0.59014   0.70983   0.00000  Uiso   1.00
Co2104 Co    0.74036   0.59014   0.70983   0.00000  Uiso   1.00
Co2105 Co    0.74036   0.59014   0.29017   0.00000  Uiso   1.00
Co2106 Co    0.59014   0.25964   0.29017   0.00000  Uiso   1.00
Co2107 Co    0.59014   0.74036   0.70983   0.00000  Uiso   1.00
Co2108 Co    0.59014   0.74036   0.29017   0.00000  Uiso   1.00
Co2109 Co    0.25964   0.59014   0.29017   0.00000  Uiso   1.00
Co2110 Co    0.37982   0.22959   0.64988   0.00000  Uiso   1.00
Co2111 Co    0.22959   0.37982   0.64988   0.00000  Uiso   1.00
Co2112 Co    0.62018   0.22959   0.64988   0.00000  Uiso   1.00
Co2113 Co    0.37982   0.22959   0.35012   0.00000  Uiso   1.00
Co2114 Co    0.62018   0.22959   0.35012   0.00000  Uiso   1.00
Co2115 Co    0.22959   0.62018   0.64988   0.00000  Uiso   1.00
Co2116 Co    0.22959   0.37982   0.35012   0.00000  Uiso   1.00
Co2117 Co    0.22959   0.62018   0.35012   0.00000  Uiso   1.00
Co2118 Co    0.62018   0.77041   0.64988   0.00000  Uiso   1.00
Co2119 Co    0.77041   0.37982   0.64988   0.00000  Uiso   1.00
Co2120 Co    0.62018   0.77041   0.35012   0.00000  Uiso   1.00
Co2121 Co    0.77041   0.37982   0.35012   0.00000  Uiso   1.00
Co2122 Co    0.77041   0.62018   0.64988   0.00000  Uiso   1.00
Co2123 Co    0.77041   0.62018   0.35012   0.00000  Uiso   1.00
Co2124 Co    0.37982   0.77041   0.64988   0.00000  Uiso   1.00
Co2125 Co    0.37982   0.77041   0.35012   0.00000  Uiso   1.00
Co2126 Co    0.28968   0.25964   0.58993   0.00000  Uiso   1.00
Co2127 Co    0.74036   0.28968   0.58993   0.00000  Uiso   1.00
Co2128 Co    0.25964   0.28968   0.58993   0.00000  Uiso   1.00
Co2129 Co    0.28968   0.25964   0.41007   0.00000  Uiso   1.00
Co2130 Co    0.25964   0.28968   0.41007   0.00000  Uiso   1.00
Co2131 Co    0.74036   0.28968   0.41007   0.00000  Uiso   1.00
Co2132 Co    0.28968   0.74036   0.58993   0.00000  Uiso   1.00
Co2133 Co    0.28968   0.74036   0.41007   0.00000  Uiso   1.00
Co2134 Co    0.71032   0.25964   0.58993   0.00000  Uiso   1.00
Co2135 Co    0.25964   0.71032   0.58993   0.00000  Uiso   1.00
Co2136 Co    0.71032   0.25964   0.41007   0.00000  Uiso   1.00
Co2137 Co    0.71032   0.74036   0.41007   0.00000  Uiso   1.00
Co2138 Co    0.74036   0.71032   0.41007   0.00000  Uiso   1.00
Co2139 Co    0.71032   0.74036   0.58993   0.00000  Uiso   1.00
Co2140 Co    0.74036   0.71032   0.58993   0.00000  Uiso   1.00
Co2141 Co    0.25964   0.71032   0.41007   0.00000  Uiso   1.00
Co2142 Co    0.50000   0.16950   0.52998   0.00000  Uiso   1.00
Co2143 Co    0.50000   0.16950   0.47002   0.00000  Uiso   1.00
Co2144 Co    0.16950   0.50000   0.52998   0.00000  Uiso   1.00
Co2145 Co    0.16950   0.50000   0.47002   0.00000  Uiso   1.00
Co2146 Co    0.83050   0.50000   0.52998   0.00000  Uiso   1.00
Co2147 Co    0.83050   0.50000   0.47002   0.00000  Uiso   1.00
Co2148 Co    0.50000   0.83050   0.47002   0.00000  Uiso   1.00
Co2149 Co    0.50000   0.83050   0.52998   0.00000  Uiso   1.00
Pt2150 Pt    0.46995   0.46995   0.50000   0.00000  Uiso   1.00
Pt2151 Pt    0.53005   0.46995   0.50000   0.00000  Uiso   1.00
Pt2152 Pt    0.46995   0.53005   0.50000   0.00000  Uiso   1.00
Pt2153 Pt    0.53005   0.53005   0.50000   0.00000  Uiso   1.00
Pt2154 Pt    0.50000   0.50000   0.55995   0.00000  Uiso   1.00
Pt2155 Pt    0.50000   0.50000   0.44005   0.00000  Uiso   1.00
Pt2156 Pt    0.50000   0.43991   0.55995   0.00000  Uiso   1.00
Pt2157 Pt    0.43991   0.50000   0.55995   0.00000  Uiso   1.00
Pt2158 Pt    0.56009   0.50000   0.55995   0.00000  Uiso   1.00
Pt2159 Pt    0.50000   0.56009   0.55995   0.00000  Uiso   1.00
Pt2160 Pt    0.43991   0.50000   0.44005   0.00000  Uiso   1.00
Pt2161 Pt    0.50000   0.43991   0.44005   0.00000  Uiso   1.00
Pt2162 Pt    0.56009   0.50000   0.44005   0.00000  Uiso   1.00
Pt2163 Pt    0.50000   0.56009   0.44005   0.00000  Uiso   1.00
Pt2164 Pt    0.46995   0.40986   0.50000   0.00000  Uiso   1.00
Pt2165 Pt    0.40986   0.46995   0.50000   0.00000  Uiso   1.00
Pt2166 Pt    0.53005   0.40986   0.50000   0.00000  Uiso   1.00
Pt2167 Pt    0.40986   0.53005   0.50000   0.00000  Uiso   1.00
Pt2168 Pt    0.59014   0.46995   0.50000   0.00000  Uiso   1.00
Pt2169 Pt    0.46995   0.59014   0.50000   0.00000  Uiso   1.00
Pt2170 Pt    0.59014   0.53005   0.50000   0.00000  Uiso   1.00
Pt2171 Pt    0.53005   0.59014   0.50000   0.00000  Uiso   1.00
Pt2172 Pt    0.43991   0.43991   0.55995   0.00000  Uiso   1.00
Pt2173 Pt    0.56009   0.43991   0.55995   0.00000  Uiso   1.00
Pt2174 Pt    0.43991   0.56009   0.55995   0.00000  Uiso   1.00
Pt2175 Pt    0.43991   0.43991   0.44005   0.00000  Uiso   1.00
Pt2176 Pt    0.56009   0.43991   0.44005   0.00000  Uiso   1.00
Pt2177 Pt    0.56009   0.56009   0.55995   0.00000  Uiso   1.00
Pt2178 Pt    0.43991   0.56009   0.44005   0.00000  Uiso   1.00
Pt2179 Pt    0.56009   0.56009   0.44005   0.00000  Uiso   1.00
Pt2180 Pt    0.46995   0.46995   0.61990   0.00000  Uiso   1.00
Pt2181 Pt    0.46995   0.46995   0.38010   0.00000  Uiso   1.00
Pt2182 Pt    0.53005   0.46995   0.61990   0.00000  Uiso   1.00
Pt2183 Pt    0.53005   0.46995   0.38010   0.00000  Uiso   1.00
Pt2184 Pt    0.46995   0.53005   0.61990   0.00000  Uiso   1.00
Pt2185 Pt    0.46995   0.53005   0.38010   0.00000  Uiso   1.00
Pt2186 Pt    0.53005   0.53005   0.38010   0.00000  Uiso   1.00
Pt2187 Pt    0.53005   0.53005   0.61990   0.00000  Uiso   1.00
Pt2188 Pt    0.40986   0.40986   0.50000   0.00000  Uiso   1.00
Pt2189 Pt    0.59014   0.40986   0.50000   0.00000  Uiso   1.00
Pt2190 Pt    0.40986   0.59014   0.50000   0.00000  Uiso   1.00
Pt2191 Pt    0.59014   0.59014   0.50000   0.00000  Uiso   1.00
Pt2192 Pt    0.50000   0.37982   0.55995   0.00000  Uiso   1.00
Pt2193 Pt    0.62018   0.50000   0.55995   0.00000  Uiso   1.00
Pt2194 Pt    0.37982   0.50000   0.55995   0.00000  Uiso   1.00
Pt2195 Pt    0.50000   0.37982   0.44005   0.00000  Uiso   1.00
Pt2196 Pt    0.50000   0.62018   0.55995   0.00000  Uiso   1.00
Pt2197 Pt    0.62018   0.50000   0.44005   0.00000  Uiso   1.00
Pt2198 Pt    0.50000   0.62018   0.44005   0.00000  Uiso   1.00
Pt2199 Pt    0.37982   0.50000   0.44005   0.00000  Uiso   1.00
Pt2200 Pt    0.43991   0.37982   0.55995   0.00000  Uiso   1.00
Pt2201 Pt    0.62018   0.43991   0.55995   0.00000  Uiso   1.00
Pt2202 Pt    0.56009   0.37982   0.55995   0.00000  Uiso   1.00
Pt2203 Pt    0.43991   0.62018   0.55995   0.00000  Uiso   1.00
Pt2204 Pt    0.43991   0.37982   0.44005   0.00000  Uiso   1.00
Pt2205 Pt    0.62018   0.43991   0.44005   0.00000  Uiso   1.00
Pt2206 Pt    0.56009   0.62018   0.55995   0.00000  Uiso   1.00
Pt2207 Pt    0.37982   0.43991   0.55995   0.00000  Uiso   1.00
Pt2208 Pt    0.62018   0.56009   0.55995   0.00000  Uiso   1.00
Pt2209 Pt    0.56009   0.37982   0.44005   0.00000  Uiso   1.00
Pt2210 Pt    0.56009   0.62018   0.44005   0.00000  Uiso   1.00
Pt2211 Pt    0.62018   0.56009   0.44005   0.00000  Uiso   1.00
Pt2212 Pt    0.37982   0.56009   0.55995   0.00000  Uiso   1.00
Pt2213 Pt    0.43991   0.62018   0.44005   0.00000  Uiso   1.00
Pt2214 Pt    0.37982   0.43991   0.44005   0.00000  Uiso   1.00
Pt2215 Pt    0.37982   0.56009   0.44005   0.00000  Uiso   1.00
Pt2216 Pt    0.46995   0.40986   0.61990   0.00000  Uiso   1.00
Pt2217 Pt    0.40986   0.46995   0.61990   0.00000  Uiso   1.00
Pt2218 Pt    0.46995   0.40986   0.38010   0.00000  Uiso   1.00
Pt2219 Pt    0.40986   0.46995   0.38010   0.00000  Uiso   1.00
Pt2220 Pt    0.40986   0.53005   0.61990   0.00000  Uiso   1.00
Pt2221 Pt    0.53005   0.40986   0.61990   0.00000  Uiso   1.00
Pt2222 Pt    0.53005   0.40986   0.38010   0.00000  Uiso   1.00
Pt2223 Pt    0.40986   0.53005   0.38010   0.00000  Uiso   1.00
Pt2224 Pt    0.59014   0.46995   0.38010   0.00000  Uiso   1.00
Pt2225 Pt    0.46995   0.59014   0.38010   0.00000  Uiso   1.00
Pt2226 Pt    0.59014   0.46995   0.61990   0.00000  Uiso   1.00
Pt2227 Pt    0.46995   0.59014   0.61990   0.00000  Uiso   1.00
Pt2228 Pt    0.59014   0.53005   0.38010   0.00000  Uiso   1.00
Pt2229 Pt    0.53005   0.59014   0.38010   0.00000  Uiso   1.00
Pt2230 Pt    0.59014   0.53005   0.61990   0.00000  Uiso   1.00
Pt2231 Pt    0.53005   0.59014   0.61990   0.00000  Uiso   1.00
Pt2232 Pt    0.46995   0.34977   0.50000   0.00000  Uiso   1.00
Pt2233 Pt    0.34977   0.46995   0.50000   0.00000  Uiso   1.00
Pt2234 Pt    0.53005   0.34977   0.50000   0.00000  Uiso   1.00
Pt2235 Pt    0.34977   0.53005   0.50000   0.00000  Uiso   1.00
Pt2236 Pt    0.65023   0.46995   0.50000   0.00000  Uiso   1.00
Pt2237 Pt    0.46995   0.65023   0.50000   0.00000  Uiso   1.00
Pt2238 Pt    0.65023   0.53005   0.50000   0.00000  Uiso   1.00
Pt2239 Pt    0.53005   0.65023   0.50000   0.00000  Uiso   1.00
Pt2240 Pt    0.40986   0.40986   0.61990   0.00000  Uiso   1.00
Pt2241 Pt    0.40986   0.40986   0.38010   0.00000  Uiso   1.00
Pt2242 Pt    0.59014   0.40986   0.38010   0.00000  Uiso   1.00
Pt2243 Pt    0.59014   0.40986   0.61990   0.00000  Uiso   1.00
Pt2244 Pt    0.40986   0.59014   0.61990   0.00000  Uiso   1.00
Pt2245 Pt    0.40986   0.59014   0.38010   0.00000  Uiso   1.00
Pt2246 Pt    0.59014   0.59014   0.38010   0.00000  Uiso   1.00
Pt2247 Pt    0.59014   0.59014   0.61990   0.00000  Uiso   1.00
Pt2248 Pt    0.40986   0.34977   0.50000   0.00000  Uiso   1.00
Pt2249 Pt    0.34977   0.40986   0.50000   0.00000  Uiso   1.00
Pt2250 Pt    0.59014   0.34977   0.50000   0.00000  Uiso   1.00
Pt2251 Pt    0.34977   0.59014   0.50000   0.00000  Uiso   1.00
Pt2252 Pt    0.65023   0.40986   0.50000   0.00000  Uiso   1.00
Pt2253 Pt    0.40986   0.65023   0.50000   0.00000  Uiso   1.00
Pt2254 Pt    0.59014   0.65023   0.50000   0.00000  Uiso   1.00
Pt2255 Pt    0.65023   0.59014   0.50000   0.00000  Uiso   1.00
Pt2256 Pt    0.50000   0.50000   0.67985   0.00000  Uiso   1.00
Pt2257 Pt    0.50000   0.50000   0.32015   0.00000  Uiso   1.00
Pt2258 Pt    0.62018   0.37982   0.55995   0.00000  Uiso   1.00
Pt2259 Pt    0.37982   0.37982   0.55995   0.00000  Uiso   1.00
Pt2260 Pt    0.62018   0.62018   0.55995   0.00000  Uiso   1.00
Pt2261 Pt    0.62018   0.37982   0.44005   0.00000  Uiso   1.00
Pt2262 Pt    0.62018   0.62018   0.44005   0.00000  Uiso   1.00
Pt2263 Pt    0.37982   0.37982   0.44005   0.00000  Uiso   1.00
Pt2264 Pt    0.37982   0.62018   0.55995   0.00000  Uiso   1.00
Pt2265 Pt    0.37982   0.62018   0.44005   0.00000  Uiso   1.00
Pt2266 Pt    0.43991   0.50000   0.67985   0.00000  Uiso   1.00
Pt2267 Pt    0.50000   0.43991   0.67985   0.00000  Uiso   1.00
Pt2268 Pt    0.43991   0.50000   0.32015   0.00000  Uiso   1.00
Pt2269 Pt    0.50000   0.43991   0.32015   0.00000  Uiso   1.00
Pt2270 Pt    0.56009   0.50000   0.32015   0.00000  Uiso   1.00
Pt2271 Pt    0.56009   0.50000   0.67985   0.00000  Uiso   1.00
Pt2272 Pt    0.50000   0.56009   0.67985   0.00000  Uiso   1.00
Pt2273 Pt    0.50000   0.56009   0.32015   0.00000  Uiso   1.00
Pt2274 Pt    0.50000   0.31973   0.55995   0.00000  Uiso   1.00
Pt2275 Pt    0.50000   0.31973   0.44005   0.00000  Uiso   1.00
Pt2276 Pt    0.68027   0.50000   0.55995   0.00000  Uiso   1.00
Pt2277 Pt    0.31973   0.50000   0.55995   0.00000  Uiso   1.00
Pt2278 Pt    0.68027   0.50000   0.44005   0.00000  Uiso   1.00
Pt2279 Pt    0.50000   0.68027   0.55995   0.00000  Uiso   1.00
Pt2280 Pt    0.31973   0.50000   0.44005   0.00000  Uiso   1.00
Pt2281 Pt    0.50000   0.68027   0.44005   0.00000  Uiso   1.00
Pt2282 Pt    0.46995   0.34977   0.61990   0.00000  Uiso   1.00
Pt2283 Pt    0.34977   0.46995   0.61990   0.00000  Uiso   1.00
Pt2284 Pt    0.46995   0.34977   0.38010   0.00000  Uiso   1.00
Pt2285 Pt    0.34977   0.46995   0.38010   0.00000  Uiso   1.00
Pt2286 Pt    0.53005   0.34977   0.61990   0.00000  Uiso   1.00
Pt2287 Pt    0.34977   0.53005   0.61990   0.00000  Uiso   1.00
Pt2288 Pt    0.53005   0.34977   0.38010   0.00000  Uiso   1.00
Pt2289 Pt    0.34977   0.53005   0.38010   0.00000  Uiso   1.00
Pt2290 Pt    0.65023   0.46995   0.38010   0.00000  Uiso   1.00
Pt2291 Pt    0.65023   0.46995   0.61990   0.00000  Uiso   1.00
Pt2292 Pt    0.46995   0.65023   0.38010   0.00000  Uiso   1.00
Pt2293 Pt    0.46995   0.65023   0.61990   0.00000  Uiso   1.00
Pt2294 Pt    0.53005   0.65023   0.38010   0.00000  Uiso   1.00
Pt2295 Pt    0.65023   0.53005   0.38010   0.00000  Uiso   1.00
Pt2296 Pt    0.53005   0.65023   0.61990   0.00000  Uiso   1.00
Pt2297 Pt    0.65023   0.53005   0.61990   0.00000  Uiso   1.00
Pt2298 Pt    0.43991   0.43991   0.67985   0.00000  Uiso   1.00
Pt2299 Pt    0.56009   0.43991   0.67985   0.00000  Uiso   1.00
Pt2300 Pt    0.43991   0.56009   0.67985   0.00000  Uiso   1.00
Pt2301 Pt    0.56009   0.43991   0.32015   0.00000  Uiso   1.00
Pt2302 Pt    0.43991   0.56009   0.32015   0.00000  Uiso   1.00
Pt2303 Pt    0.43991   0.43991   0.32015   0.00000  Uiso   1.00
Pt2304 Pt    0.56009   0.56009   0.32015   0.00000  Uiso   1.00
Pt2305 Pt    0.56009   0.56009   0.67985   0.00000  Uiso   1.00
Pt2306 Pt    0.43991   0.31973   0.55995   0.00000  Uiso   1.00
Pt2307 Pt    0.56009   0.31973   0.55995   0.00000  Uiso   1.00
Pt2308 Pt    0.31973   0.43991   0.55995   0.00000  Uiso   1.00
Pt2309 Pt    0.68027   0.43991   0.55995   0.00000  Uiso   1.00
Pt2310 Pt    0.68027   0.43991   0.44005   0.00000  Uiso   1.00
Pt2311 Pt    0.56009   0.68027   0.55995   0.00000  Uiso   1.00
Pt2312 Pt    0.43991   0.31973   0.44005   0.00000  Uiso   1.00
Pt2313 Pt    0.56009   0.31973   0.44005   0.00000  Uiso   1.00
Pt2314 Pt    0.31973   0.43991   0.44005   0.00000  Uiso   1.00
Pt2315 Pt    0.68027   0.56009   0.55995   0.00000  Uiso   1.00
Pt2316 Pt    0.56009   0.68027   0.44005   0.00000  Uiso   1.00
Pt2317 Pt    0.31973   0.56009   0.55995   0.00000  Uiso   1.00
Pt2318 Pt    0.68027   0.56009   0.44005   0.00000  Uiso   1.00
Pt2319 Pt    0.43991   0.68027   0.55995   0.00000  Uiso   1.00
Pt2320 Pt    0.31973   0.56009   0.44005   0.00000  Uiso   1.00
Pt2321 Pt    0.43991   0.68027   0.44005   0.00000  Uiso   1.00
Pt2322 Pt    0.40986   0.34977   0.61990   0.00000  Uiso   1.00
Pt2323 Pt    0.34977   0.40986   0.61990   0.00000  Uiso   1.00
Pt2324 Pt    0.40986   0.34977   0.38010   0.00000  Uiso   1.00
Pt2325 Pt    0.34977   0.40986   0.38010   0.00000  Uiso   1.00
Pt2326 Pt    0.59014   0.34977   0.61990   0.00000  Uiso   1.00
Pt2327 Pt    0.34977   0.59014   0.61990   0.00000  Uiso   1.00
Pt2328 Pt    0.59014   0.34977   0.38010   0.00000  Uiso   1.00
Pt2329 Pt    0.34977   0.59014   0.38010   0.00000  Uiso   1.00
Pt2330 Pt    0.65023   0.40986   0.38010   0.00000  Uiso   1.00
Pt2331 Pt    0.65023   0.40986   0.61990   0.00000  Uiso   1.00
Pt2332 Pt    0.40986   0.65023   0.38010   0.00000  Uiso   1.00
Pt2333 Pt    0.40986   0.65023   0.61990   0.00000  Uiso   1.00
Pt2334 Pt    0.59014   0.65023   0.38010   0.00000  Uiso   1.00
Pt2335 Pt    0.65023   0.59014   0.38010   0.00000  Uiso   1.00
Pt2336 Pt    0.59014   0.65023   0.61990   0.00000  Uiso   1.00
Pt2337 Pt    0.65023   0.59014   0.61990   0.00000  Uiso   1.00
Pt2338 Pt    0.34977   0.34977   0.50000   0.00000  Uiso   1.00
Pt2339 Pt    0.46995   0.28968   0.50000   0.00000  Uiso   1.00
Pt2340 Pt    0.28968   0.46995   0.50000   0.00000  Uiso   1.00
Pt2341 Pt    0.53005   0.28968   0.50000   0.00000  Uiso   1.00
Pt2342 Pt    0.28968   0.53005   0.50000   0.00000  Uiso   1.00
Pt2343 Pt    0.65023   0.34977   0.50000   0.00000  Uiso   1.00
Pt2344 Pt    0.34977   0.65023   0.50000   0.00000  Uiso   1.00
Pt2345 Pt    0.71032   0.46995   0.50000   0.00000  Uiso   1.00
Pt2346 Pt    0.46995   0.71032   0.50000   0.00000  Uiso   1.00
Pt2347 Pt    0.71032   0.53005   0.50000   0.00000  Uiso   1.00
Pt2348 Pt    0.53005   0.71032   0.50000   0.00000  Uiso   1.00
Pt2349 Pt    0.65023   0.65023   0.50000   0.00000  Uiso   1.00
Pt2350 Pt    0.50000   0.37982   0.67985   0.00000  Uiso   1.00
Pt2351 Pt    0.37982   0.50000   0.67985   0.00000  Uiso   1.00
Pt2352 Pt    0.62018   0.50000   0.32015   0.00000  Uiso   1.00
Pt2353 Pt    0.62018   0.50000   0.67985   0.00000  Uiso   1.00
Pt2354 Pt    0.50000   0.62018   0.32015   0.00000  Uiso   1.00
Pt2355 Pt    0.50000   0.62018   0.67985   0.00000  Uiso   1.00
Pt2356 Pt    0.50000   0.37982   0.32015   0.00000  Uiso   1.00
Pt2357 Pt    0.37982   0.50000   0.32015   0.00000  Uiso   1.00
Pt2358 Pt    0.43991   0.37982   0.67985   0.00000  Uiso   1.00
Pt2359 Pt    0.56009   0.37982   0.67985   0.00000  Uiso   1.00
Pt2360 Pt    0.37982   0.43991   0.67985   0.00000  Uiso   1.00
Pt2361 Pt    0.37982   0.56009   0.67985   0.00000  Uiso   1.00
Pt2362 Pt    0.56009   0.37982   0.32015   0.00000  Uiso   1.00
Pt2363 Pt    0.62018   0.43991   0.32015   0.00000  Uiso   1.00
Pt2364 Pt    0.62018   0.43991   0.67985   0.00000  Uiso   1.00
Pt2365 Pt    0.43991   0.62018   0.32015   0.00000  Uiso   1.00
Pt2366 Pt    0.43991   0.62018   0.67985   0.00000  Uiso   1.00
Pt2367 Pt    0.62018   0.56009   0.67985   0.00000  Uiso   1.00
Pt2368 Pt    0.62018   0.56009   0.32015   0.00000  Uiso   1.00
Pt2369 Pt    0.56009   0.62018   0.32015   0.00000  Uiso   1.00
Pt2370 Pt    0.56009   0.62018   0.67985   0.00000  Uiso   1.00
Pt2371 Pt    0.37982   0.56009   0.32015   0.00000  Uiso   1.00
Pt2372 Pt    0.43991   0.37982   0.32015   0.00000  Uiso   1.00
Pt2373 Pt    0.37982   0.43991   0.32015   0.00000  Uiso   1.00
Pt2374 Pt    0.37982   0.31973   0.55995   0.00000  Uiso   1.00
Pt2375 Pt    0.62018   0.31973   0.55995   0.00000  Uiso   1.00
Pt2376 Pt    0.68027   0.37982   0.55995   0.00000  Uiso   1.00
Pt2377 Pt    0.31973   0.37982   0.55995   0.00000  Uiso   1.00
Pt2378 Pt    0.62018   0.31973   0.44005   0.00000  Uiso   1.00
Pt2379 Pt    0.37982   0.31973   0.44005   0.00000  Uiso   1.00
Pt2380 Pt    0.62018   0.68027   0.44005   0.00000  Uiso   1.00
Pt2381 Pt    0.31973   0.62018   0.55995   0.00000  Uiso   1.00
Pt2382 Pt    0.68027   0.37982   0.44005   0.00000  Uiso   1.00
Pt2383 Pt    0.31973   0.37982   0.44005   0.00000  Uiso   1.00
Pt2384 Pt    0.62018   0.68027   0.55995   0.00000  Uiso   1.00
Pt2385 Pt    0.68027   0.62018   0.44005   0.00000  Uiso   1.00
Pt2386 Pt    0.31973   0.62018   0.44005   0.00000  Uiso   1.00
Pt2387 Pt    0.68027   0.62018   0.55995   0.00000  Uiso   1.00
Pt2388 Pt    0.37982   0.68027   0.55995   0.00000  Uiso   1.00
Pt2389 Pt    0.37982   0.68027   0.44005   0.00000  Uiso   1.00
Pt2390 Pt    0.40986   0.28968   0.50000   0.00000  Uiso   1.00
Pt2391 Pt    0.28968   0.40986   0.50000   0.00000  Uiso   1.00
Pt2392 Pt    0.59014   0.28968   0.50000   0.00000  Uiso   1.00
Pt2393 Pt    0.28968   0.59014   0.50000   0.00000  Uiso   1.00
Pt2394 Pt    0.71032   0.40986   0.50000   0.00000  Uiso   1.00
Pt2395 Pt    0.40986   0.71032   0.50000   0.00000  Uiso   1.00
Pt2396 Pt    0.71032   0.59014   0.50000   0.00000  Uiso   1.00
Pt2397 Pt    0.59014   0.71032   0.50000   0.00000  Uiso   1.00
Pt2398 Pt    0.46995   0.46995   0.73981   0.00000  Uiso   1.00
Pt2399 Pt    0.46995   0.46995   0.26019   0.00000  Uiso   1.00
Pt2400 Pt    0.53005   0.46995   0.73981   0.00000  Uiso   1.00
Pt2401 Pt    0.46995   0.53005   0.73981   0.00000  Uiso   1.00
Pt2402 Pt    0.46995   0.53005   0.26019   0.00000  Uiso   1.00
Pt2403 Pt    0.53005   0.46995   0.26019   0.00000  Uiso   1.00
Pt2404 Pt    0.53005   0.53005   0.73981   0.00000  Uiso   1.00
Pt2405 Pt    0.53005   0.53005   0.26019   0.00000  Uiso   1.00
Pt2406 Pt    0.34977   0.34977   0.61990   0.00000  Uiso   1.00
Pt2407 Pt    0.34977   0.34977   0.38010   0.00000  Uiso   1.00
Pt2408 Pt    0.46995   0.28968   0.61990   0.00000  Uiso   1.00
Pt2409 Pt    0.46995   0.28968   0.38010   0.00000  Uiso   1.00
Pt2410 Pt    0.28968   0.46995   0.61990   0.00000  Uiso   1.00
Pt2411 Pt    0.28968   0.46995   0.38010   0.00000  Uiso   1.00
Pt2412 Pt    0.53005   0.28968   0.61990   0.00000  Uiso   1.00
Pt2413 Pt    0.28968   0.53005   0.61990   0.00000  Uiso   1.00
Pt2414 Pt    0.53005   0.28968   0.38010   0.00000  Uiso   1.00
Pt2415 Pt    0.28968   0.53005   0.38010   0.00000  Uiso   1.00
Pt2416 Pt    0.65023   0.34977   0.61990   0.00000  Uiso   1.00
Pt2417 Pt    0.65023   0.34977   0.38010   0.00000  Uiso   1.00
Pt2418 Pt    0.34977   0.65023   0.38010   0.00000  Uiso   1.00
Pt2419 Pt    0.34977   0.65023   0.61990   0.00000  Uiso   1.00
Pt2420 Pt    0.71032   0.46995   0.38010   0.00000  Uiso   1.00
Pt2421 Pt    0.71032   0.46995   0.61990   0.00000  Uiso   1.00
Pt2422 Pt    0.46995   0.71032   0.38010   0.00000  Uiso   1.00
Pt2423 Pt    0.46995   0.71032   0.61990   0.00000  Uiso   1.00
Pt2424 Pt    0.71032   0.53005   0.38010   0.00000  Uiso   1.00
Pt2425 Pt    0.53005   0.71032   0.38010   0.00000  Uiso   1.00
Pt2426 Pt    0.71032   0.53005   0.61990   0.00000  Uiso   1.00
Pt2427 Pt    0.53005   0.71032   0.61990   0.00000  Uiso   1.00
Pt2428 Pt    0.65023   0.65023   0.38010   0.00000  Uiso   1.00
Pt2429 Pt    0.65023   0.65023   0.61990   0.00000  Uiso   1.00
Pt2430 Pt    0.37982   0.37982   0.67985   0.00000  Uiso   1.00
Pt2431 Pt    0.62018   0.37982   0.67985   0.00000  Uiso   1.00
Pt2432 Pt    0.37982   0.62018   0.67985   0.00000  Uiso   1.00
Pt2433 Pt    0.62018   0.37982   0.32015   0.00000  Uiso   1.00
Pt2434 Pt    0.62018   0.62018   0.67985   0.00000  Uiso   1.00
Pt2435 Pt    0.62018   0.62018   0.32015   0.00000  Uiso   1.00
Pt2436 Pt    0.37982   0.37982   0.32015   0.00000  Uiso   1.00
Pt2437 Pt    0.37982   0.62018   0.32015   0.00000  Uiso   1.00
Pt2438 Pt    0.50000   0.25964   0.55995   0.00000  Uiso   1.00
Pt2439 Pt    0.50000   0.25964   0.44005   0.00000  Uiso   1.00
Pt2440 Pt    0.74036   0.50000   0.55995   0.00000  Uiso   1.00
Pt2441 Pt    0.74036   0.50000   0.44005   0.00000  Uiso   1.00
Pt2442 Pt    0.50000   0.74036   0.55995   0.00000  Uiso   1.00
Pt2443 Pt    0.25964   0.50000   0.55995   0.00000  Uiso   1.00
Pt2444 Pt    0.50000   0.74036   0.44005   0.00000  Uiso   1.00
Pt2445 Pt    0.25964   0.50000   0.44005   0.00000  Uiso   1.00
Pt2446 Pt    0.50000   0.31973   0.67985   0.00000  Uiso   1.00
Pt2447 Pt    0.31973   0.50000   0.67985   0.00000  Uiso   1.00
Pt2448 Pt    0.68027   0.50000   0.67985   0.00000  Uiso   1.00
Pt2449 Pt    0.68027   0.50000   0.32015   0.00000  Uiso   1.00
Pt2450 Pt    0.50000   0.31973   0.32015   0.00000  Uiso   1.00
Pt2451 Pt    0.50000   0.68027   0.67985   0.00000  Uiso   1.00
Pt2452 Pt    0.50000   0.68027   0.32015   0.00000  Uiso   1.00
Pt2453 Pt    0.31973   0.50000   0.32015   0.00000  Uiso   1.00
Pt2454 Pt    0.56009   0.25964   0.55995   0.00000  Uiso   1.00
Pt2455 Pt    0.43991   0.25964   0.55995   0.00000  Uiso   1.00
Pt2456 Pt    0.74036   0.43991   0.55995   0.00000  Uiso   1.00
Pt2457 Pt    0.43991   0.25964   0.44005   0.00000  Uiso   1.00
Pt2458 Pt    0.56009   0.25964   0.44005   0.00000  Uiso   1.00
Pt2459 Pt    0.74036   0.43991   0.44005   0.00000  Uiso   1.00
Pt2460 Pt    0.56009   0.74036   0.44005   0.00000  Uiso   1.00
Pt2461 Pt    0.25964   0.43991   0.55995   0.00000  Uiso   1.00
Pt2462 Pt    0.43991   0.74036   0.55995   0.00000  Uiso   1.00
Pt2463 Pt    0.74036   0.56009   0.44005   0.00000  Uiso   1.00
Pt2464 Pt    0.56009   0.74036   0.55995   0.00000  Uiso   1.00
Pt2465 Pt    0.74036   0.56009   0.55995   0.00000  Uiso   1.00
Pt2466 Pt    0.25964   0.43991   0.44005   0.00000  Uiso   1.00
Pt2467 Pt    0.25964   0.56009   0.55995   0.00000  Uiso   1.00
Pt2468 Pt    0.43991   0.74036   0.44005   0.00000  Uiso   1.00
Pt2469 Pt    0.25964   0.56009   0.44005   0.00000  Uiso   1.00
Pt2470 Pt    0.40986   0.46995   0.73981   0.00000  Uiso   1.00
Pt2471 Pt    0.46995   0.40986   0.73981   0.00000  Uiso   1.00
Pt2472 Pt    0.46995   0.40986   0.26019   0.00000  Uiso   1.00
Pt2473 Pt    0.40986   0.46995   0.26019   0.00000  Uiso   1.00
Pt2474 Pt    0.53005   0.40986   0.73981   0.00000  Uiso   1.00
Pt2475 Pt    0.40986   0.53005   0.73981   0.00000  Uiso   1.00
Pt2476 Pt    0.40986   0.53005   0.26019   0.00000  Uiso   1.00
Pt2477 Pt    0.53005   0.40986   0.26019   0.00000  Uiso   1.00
Pt2478 Pt    0.59014   0.46995   0.73981   0.00000  Uiso   1.00
Pt2479 Pt    0.46995   0.59014   0.73981   0.00000  Uiso   1.00
Pt2480 Pt    0.59014   0.46995   0.26019   0.00000  Uiso   1.00
Pt2481 Pt    0.46995   0.59014   0.26019   0.00000  Uiso   1.00
Pt2482 Pt    0.59014   0.53005   0.73981   0.00000  Uiso   1.00
Pt2483 Pt    0.53005   0.59014   0.73981   0.00000  Uiso   1.00
Pt2484 Pt    0.59014   0.53005   0.26019   0.00000  Uiso   1.00
Pt2485 Pt    0.53005   0.59014   0.26019   0.00000  Uiso   1.00
Pt2486 Pt    0.40986   0.28968   0.61990   0.00000  Uiso   1.00
Pt2487 Pt    0.28968   0.40986   0.61990   0.00000  Uiso   1.00
Pt2488 Pt    0.40986   0.28968   0.38010   0.00000  Uiso   1.00
Pt2489 Pt    0.28968   0.40986   0.38010   0.00000  Uiso   1.00
Pt2490 Pt    0.59014   0.28968   0.61990   0.00000  Uiso   1.00
Pt2491 Pt    0.28968   0.59014   0.61990   0.00000  Uiso   1.00
Pt2492 Pt    0.59014   0.28968   0.38010   0.00000  Uiso   1.00
Pt2493 Pt    0.28968   0.59014   0.38010   0.00000  Uiso   1.00
Pt2494 Pt    0.71032   0.40986   0.38010   0.00000  Uiso   1.00
Pt2495 Pt    0.71032   0.40986   0.61990   0.00000  Uiso   1.00
Pt2496 Pt    0.40986   0.71032   0.38010   0.00000  Uiso   1.00
Pt2497 Pt    0.40986   0.71032   0.61990   0.00000  Uiso   1.00
Pt2498 Pt    0.71032   0.59014   0.38010   0.00000  Uiso   1.00
Pt2499 Pt    0.59014   0.71032   0.38010   0.00000  Uiso   1.00
Pt2500 Pt    0.59014   0.71032   0.61990   0.00000  Uiso   1.00
Pt2501 Pt    0.71032   0.59014   0.61990   0.00000  Uiso   1.00
Pt2502 Pt    0.28968   0.34977   0.50000   0.00000  Uiso   1.00
Pt2503 Pt    0.34977   0.28968   0.50000   0.00000  Uiso   1.00
Pt2504 Pt    0.65023   0.28968   0.50000   0.00000  Uiso   1.00
Pt2505 Pt    0.28968   0.65023   0.50000   0.00000  Uiso   1.00
Pt2506 Pt    0.71032   0.34977   0.50000   0.00000  Uiso   1.00
Pt2507 Pt    0.34977   0.71032   0.50000   0.00000  Uiso   1.00
Pt2508 Pt    0.71032   0.65023   0.50000   0.00000  Uiso   1.00
Pt2509 Pt    0.65023   0.71032   0.50000   0.00000  Uiso   1.00
Pt2510 Pt    0.43991   0.31973   0.67985   0.00000  Uiso   1.00
Pt2511 Pt    0.56009   0.31973   0.67985   0.00000  Uiso   1.00
Pt2512 Pt    0.31973   0.43991   0.67985   0.00000  Uiso   1.00
Pt2513 Pt    0.31973   0.56009   0.67985   0.00000  Uiso   1.00
Pt2514 Pt    0.68027   0.43991   0.32015   0.00000  Uiso   1.00
Pt2515 Pt    0.68027   0.43991   0.67985   0.00000  Uiso   1.00
Pt2516 Pt    0.56009   0.68027   0.67985   0.00000  Uiso   1.00
Pt2517 Pt    0.56009   0.68027   0.32015   0.00000  Uiso   1.00
Pt2518 Pt    0.43991   0.31973   0.32015   0.00000  Uiso   1.00
Pt2519 Pt    0.68027   0.56009   0.67985   0.00000  Uiso   1.00
Pt2520 Pt    0.56009   0.31973   0.32015   0.00000  Uiso   1.00
Pt2521 Pt    0.68027   0.56009   0.32015   0.00000  Uiso   1.00
Pt2522 Pt    0.31973   0.43991   0.32015   0.00000  Uiso   1.00
Pt2523 Pt    0.43991   0.68027   0.67985   0.00000  Uiso   1.00
Pt2524 Pt    0.43991   0.68027   0.32015   0.00000  Uiso   1.00
Pt2525 Pt    0.31973   0.56009   0.32015   0.00000  Uiso   1.00
Pt2526 Pt    0.31973   0.31973   0.55995   0.00000  Uiso   1.00
Pt2527 Pt    0.68027   0.31973   0.55995   0.00000  Uiso   1.00
Pt2528 Pt    0.31973   0.31973   0.44005   0.00000  Uiso   1.00
Pt2529 Pt    0.68027   0.31973   0.44005   0.00000  Uiso   1.00
Pt2530 Pt    0.31973   0.68027   0.55995   0.00000  Uiso   1.00
Pt2531 Pt    0.68027   0.68027   0.44005   0.00000  Uiso   1.00
Pt2532 Pt    0.31973   0.68027   0.44005   0.00000  Uiso   1.00
Pt2533 Pt    0.68027   0.68027   0.55995   0.00000  Uiso   1.00
Pt2534 Pt    0.40986   0.40986   0.73981   0.00000  Uiso   1.00
Pt2535 Pt    0.40986   0.40986   0.26019   0.00000  Uiso   1.00
Pt2536 Pt    0.40986   0.59014   0.73981   0.00000  Uiso   1.00
Pt2537 Pt    0.59014   0.40986   0.73981   0.00000  Uiso   1.00
Pt2538 Pt    0.40986   0.59014   0.26019   0.00000  Uiso   1.00
Pt2539 Pt    0.59014   0.40986   0.26019   0.00000  Uiso   1.00
Pt2540 Pt    0.59014   0.59014   0.73981   0.00000  Uiso   1.00
Pt2541 Pt    0.59014   0.59014   0.26019   0.00000  Uiso   1.00
Pt2542 Pt    0.46995   0.22959   0.50000   0.00000  Uiso   1.00
Pt2543 Pt    0.22959   0.46995   0.50000   0.00000  Uiso   1.00
Pt2544 Pt    0.53005   0.22959   0.50000   0.00000  Uiso   1.00
Pt2545 Pt    0.22959   0.53005   0.50000   0.00000  Uiso   1.00
Pt2546 Pt    0.77041   0.46995   0.50000   0.00000  Uiso   1.00
Pt2547 Pt    0.46995   0.77041   0.50000   0.00000  Uiso   1.00
Pt2548 Pt    0.77041   0.53005   0.50000   0.00000  Uiso   1.00
Pt2549 Pt    0.53005   0.77041   0.50000   0.00000  Uiso   1.00
Pt2550 Pt    0.62018   0.25964   0.55995   0.00000  Uiso   1.00
Pt2551 Pt    0.37982   0.25964   0.55995   0.00000  Uiso   1.00
Pt2552 Pt    0.74036   0.37982   0.55995   0.00000  Uiso   1.00
Pt2553 Pt    0.37982   0.25964   0.44005   0.00000  Uiso   1.00
Pt2554 Pt    0.62018   0.74036   0.44005   0.00000  Uiso   1.00
Pt2555 Pt    0.62018   0.74036   0.55995   0.00000  Uiso   1.00
Pt2556 Pt    0.62018   0.25964   0.44005   0.00000  Uiso   1.00
Pt2557 Pt    0.74036   0.37982   0.44005   0.00000  Uiso   1.00
Pt2558 Pt    0.74036   0.62018   0.44005   0.00000  Uiso   1.00
Pt2559 Pt    0.25964   0.37982   0.44005   0.00000  Uiso   1.00
Pt2560 Pt    0.74036   0.62018   0.55995   0.00000  Uiso   1.00
Pt2561 Pt    0.25964   0.37982   0.55995   0.00000  Uiso   1.00
Pt2562 Pt    0.25964   0.62018   0.55995   0.00000  Uiso   1.00
Pt2563 Pt    0.37982   0.74036   0.55995   0.00000  Uiso   1.00
Pt2564 Pt    0.37982   0.74036   0.44005   0.00000  Uiso   1.00
Pt2565 Pt    0.25964   0.62018   0.44005   0.00000  Uiso   1.00
Pt2566 Pt    0.62018   0.31973   0.67985   0.00000  Uiso   1.00
Pt2567 Pt    0.37982   0.31973   0.67985   0.00000  Uiso   1.00
Pt2568 Pt    0.31973   0.62018   0.67985   0.00000  Uiso   1.00
Pt2569 Pt    0.31973   0.37982   0.67985   0.00000  Uiso   1.00
Pt2570 Pt    0.62018   0.31973   0.32015   0.00000  Uiso   1.00
Pt2571 Pt    0.68027   0.37982   0.32015   0.00000  Uiso   1.00
Pt2572 Pt    0.62018   0.68027   0.67985   0.00000  Uiso   1.00
Pt2573 Pt    0.68027   0.37982   0.67985   0.00000  Uiso   1.00
Pt2574 Pt    0.62018   0.68027   0.32015   0.00000  Uiso   1.00
Pt2575 Pt    0.68027   0.62018   0.67985   0.00000  Uiso   1.00
Pt2576 Pt    0.68027   0.62018   0.32015   0.00000  Uiso   1.00
Pt2577 Pt    0.31973   0.37982   0.32015   0.00000  Uiso   1.00
Pt2578 Pt    0.31973   0.62018   0.32015   0.00000  Uiso   1.00
Pt2579 Pt    0.37982   0.31973   0.32015   0.00000  Uiso   1.00
Pt2580 Pt    0.37982   0.68027   0.67985   0.00000  Uiso   1.00
Pt2581 Pt    0.37982   0.68027   0.32015   0.00000  Uiso   1.00
Pt2582 Pt    0.46995   0.34977   0.73981   0.00000  Uiso   1.00
Pt2583 Pt    0.34977   0.46995   0.73981   0.00000  Uiso   1.00
Pt2584 Pt    0.46995   0.34977   0.26019   0.00000  Uiso   1.00
Pt2585 Pt    0.34977   0.46995   0.26019   0.00000  Uiso   1.00
Pt2586 Pt    0.53005   0.34977   0.73981   0.00000  Uiso   1.00
Pt2587 Pt    0.34977   0.53005   0.73981   0.00000  Uiso   1.00
Pt2588 Pt    0.53005   0.34977   0.26019   0.00000  Uiso   1.00
Pt2589 Pt    0.34977   0.53005   0.26019   0.00000  Uiso   1.00
Pt2590 Pt    0.65023   0.46995   0.73981   0.00000  Uiso   1.00
Pt2591 Pt    0.65023   0.46995   0.26019   0.00000  Uiso   1.00
Pt2592 Pt    0.46995   0.65023   0.73981   0.00000  Uiso   1.00
Pt2593 Pt    0.46995   0.65023   0.26019   0.00000  Uiso   1.00
Pt2594 Pt    0.53005   0.65023   0.73981   0.00000  Uiso   1.00
Pt2595 Pt    0.65023   0.53005   0.73981   0.00000  Uiso   1.00
Pt2596 Pt    0.53005   0.65023   0.26019   0.00000  Uiso   1.00
Pt2597 Pt    0.65023   0.53005   0.26019   0.00000  Uiso   1.00
Pt2598 Pt    0.28968   0.34977   0.61990   0.00000  Uiso   1.00
Pt2599 Pt    0.34977   0.28968   0.61990   0.00000  Uiso   1.00
Pt2600 Pt    0.34977   0.28968   0.38010   0.00000  Uiso   1.00
Pt2601 Pt    0.28968   0.34977   0.38010   0.00000  Uiso   1.00
Pt2602 Pt    0.65023   0.28968   0.61990   0.00000  Uiso   1.00
Pt2603 Pt    0.65023   0.28968   0.38010   0.00000  Uiso   1.00
Pt2604 Pt    0.28968   0.65023   0.61990   0.00000  Uiso   1.00
Pt2605 Pt    0.28968   0.65023   0.38010   0.00000  Uiso   1.00
Pt2606 Pt    0.71032   0.34977   0.38010   0.00000  Uiso   1.00
Pt2607 Pt    0.71032   0.34977   0.61990   0.00000  Uiso   1.00
Pt2608 Pt    0.34977   0.71032   0.38010   0.00000  Uiso   1.00
Pt2609 Pt    0.34977   0.71032   0.61990   0.00000  Uiso   1.00
Pt2610 Pt    0.65023   0.71032   0.38010   0.00000  Uiso   1.00
Pt2611 Pt    0.71032   0.65023   0.61990   0.00000  Uiso   1.00
Pt2612 Pt    0.71032   0.65023   0.38010   0.00000  Uiso   1.00
Pt2613 Pt    0.65023   0.71032   0.61990   0.00000  Uiso   1.00
Pt2614 Pt    0.40986   0.22959   0.50000   0.00000  Uiso   1.00
Pt2615 Pt    0.22959   0.40986   0.50000   0.00000  Uiso   1.00
Pt2616 Pt    0.59014   0.22959   0.50000   0.00000  Uiso   1.00
Pt2617 Pt    0.22959   0.59014   0.50000   0.00000  Uiso   1.00
Pt2618 Pt    0.77041   0.40986   0.50000   0.00000  Uiso   1.00
Pt2619 Pt    0.40986   0.77041   0.50000   0.00000  Uiso   1.00
Pt2620 Pt    0.59014   0.77041   0.50000   0.00000  Uiso   1.00
Pt2621 Pt    0.77041   0.59014   0.50000   0.00000  Uiso   1.00
Pt2622 Pt    0.40986   0.34977   0.73981   0.00000  Uiso   1.00
Pt2623 Pt    0.34977   0.40986   0.73981   0.00000  Uiso   1.00
Pt2624 Pt    0.40986   0.34977   0.26019   0.00000  Uiso   1.00
Pt2625 Pt    0.34977   0.40986   0.26019   0.00000  Uiso   1.00
Pt2626 Pt    0.59014   0.34977   0.73981   0.00000  Uiso   1.00
Pt2627 Pt    0.34977   0.59014   0.73981   0.00000  Uiso   1.00
Pt2628 Pt    0.59014   0.34977   0.26019   0.00000  Uiso   1.00
Pt2629 Pt    0.34977   0.59014   0.26019   0.00000  Uiso   1.00
Pt2630 Pt    0.65023   0.40986   0.73981   0.00000  Uiso   1.00
Pt2631 Pt    0.40986   0.65023   0.73981   0.00000  Uiso   1.00
Pt2632 Pt    0.65023   0.40986   0.26019   0.00000  Uiso   1.00
Pt2633 Pt    0.40986   0.65023   0.26019   0.00000  Uiso   1.00
Pt2634 Pt    0.65023   0.59014   0.73981   0.00000  Uiso   1.00
Pt2635 Pt    0.59014   0.65023   0.73981   0.00000  Uiso   1.00
Pt2636 Pt    0.59014   0.65023   0.26019   0.00000  Uiso   1.00
Pt2637 Pt    0.65023   0.59014   0.26019   0.00000  Uiso   1.00
Pt2638 Pt    0.46995   0.22959   0.61990   0.00000  Uiso   1.00
Pt2639 Pt    0.22959   0.46995   0.61990   0.00000  Uiso   1.00
Pt2640 Pt    0.46995   0.22959   0.38010   0.00000  Uiso   1.00
Pt2641 Pt    0.22959   0.46995   0.38010   0.00000  Uiso   1.00
Pt2642 Pt    0.53005   0.22959   0.61990   0.00000  Uiso   1.00
Pt2643 Pt    0.53005   0.22959   0.38010   0.00000  Uiso   1.00
Pt2644 Pt    0.22959   0.53005   0.61990   0.00000  Uiso   1.00
Pt2645 Pt    0.22959   0.53005   0.38010   0.00000  Uiso   1.00
Pt2646 Pt    0.77041   0.46995   0.38010   0.00000  Uiso   1.00
Pt2647 Pt    0.77041   0.46995   0.61990   0.00000  Uiso   1.00
Pt2648 Pt    0.46995   0.77041   0.38010   0.00000  Uiso   1.00
Pt2649 Pt    0.46995   0.77041   0.61990   0.00000  Uiso   1.00
Pt2650 Pt    0.77041   0.53005   0.61990   0.00000  Uiso   1.00
Pt2651 Pt    0.77041   0.53005   0.38010   0.00000  Uiso   1.00
Pt2652 Pt    0.53005   0.77041   0.61990   0.00000  Uiso   1.00
Pt2653 Pt    0.53005   0.77041   0.38010   0.00000  Uiso   1.00
Pt2654 Pt    0.28968   0.28968   0.50000   0.00000  Uiso   1.00
Pt2655 Pt    0.71032   0.28968   0.50000   0.00000  Uiso   1.00
Pt2656 Pt    0.28968   0.71032   0.50000   0.00000  Uiso   1.00
Pt2657 Pt    0.71032   0.71032   0.50000   0.00000  Uiso   1.00
Pt2658 Pt    0.50000   0.50000   0.20024   0.00000  Uiso   1.00
Pt2659 Pt    0.50000   0.50000   0.79976   0.00000  Uiso   1.00
Pt2660 Pt    0.50000   0.25964   0.67985   0.00000  Uiso   1.00
Pt2661 Pt    0.25964   0.50000   0.67985   0.00000  Uiso   1.00
Pt2662 Pt    0.74036   0.50000   0.32015   0.00000  Uiso   1.00
Pt2663 Pt    0.50000   0.25964   0.32015   0.00000  Uiso   1.00
Pt2664 Pt    0.74036   0.50000   0.67985   0.00000  Uiso   1.00
Pt2665 Pt    0.50000   0.74036   0.67985   0.00000  Uiso   1.00
Pt2666 Pt    0.25964   0.50000   0.32015   0.00000  Uiso   1.00
Pt2667 Pt    0.50000   0.74036   0.32015   0.00000  Uiso   1.00
Pt2668 Pt    0.56009   0.50000   0.20024   0.00000  Uiso   1.00
Pt2669 Pt    0.43991   0.50000   0.79976   0.00000  Uiso   1.00
Pt2670 Pt    0.56009   0.50000   0.79976   0.00000  Uiso   1.00
Pt2671 Pt    0.50000   0.43991   0.79976   0.00000  Uiso   1.00
Pt2672 Pt    0.50000   0.56009   0.79976   0.00000  Uiso   1.00
Pt2673 Pt    0.50000   0.56009   0.20024   0.00000  Uiso   1.00
Pt2674 Pt    0.43991   0.50000   0.20024   0.00000  Uiso   1.00
Pt2675 Pt    0.50000   0.43991   0.20024   0.00000  Uiso   1.00
Pt2676 Pt    0.56009   0.25964   0.67985   0.00000  Uiso   1.00
Pt2677 Pt    0.43991   0.25964   0.67985   0.00000  Uiso   1.00
Pt2678 Pt    0.25964   0.43991   0.67985   0.00000  Uiso   1.00
Pt2679 Pt    0.25964   0.56009   0.67985   0.00000  Uiso   1.00
Pt2680 Pt    0.74036   0.56009   0.32015   0.00000  Uiso   1.00
Pt2681 Pt    0.74036   0.56009   0.67985   0.00000  Uiso   1.00
Pt2682 Pt    0.74036   0.43991   0.32015   0.00000  Uiso   1.00
Pt2683 Pt    0.43991   0.25964   0.32015   0.00000  Uiso   1.00
Pt2684 Pt    0.56009   0.74036   0.32015   0.00000  Uiso   1.00
Pt2685 Pt    0.74036   0.43991   0.67985   0.00000  Uiso   1.00
Pt2686 Pt    0.56009   0.74036   0.67985   0.00000  Uiso   1.00
Pt2687 Pt    0.25964   0.43991   0.32015   0.00000  Uiso   1.00
Pt2688 Pt    0.43991   0.74036   0.32015   0.00000  Uiso   1.00
Pt2689 Pt    0.43991   0.74036   0.67985   0.00000  Uiso   1.00
Pt2690 Pt    0.56009   0.25964   0.32015   0.00000  Uiso   1.00
Pt2691 Pt    0.25964   0.56009   0.32015   0.00000  Uiso   1.00
Pt2692 Pt    0.74036   0.31973   0.44005   0.00000  Uiso   1.00
Pt2693 Pt    0.31973   0.25964   0.44005   0.00000  Uiso   1.00
Pt2694 Pt    0.50000   0.19955   0.44005   0.00000  Uiso   1.00
Pt2695 Pt    0.31973   0.25964   0.55995   0.00000  Uiso   1.00
Pt2696 Pt    0.74036   0.31973   0.55995   0.00000  Uiso   1.00
Pt2697 Pt    0.25964   0.31973   0.55995   0.00000  Uiso   1.00
Pt2698 Pt    0.68027   0.25964   0.55995   0.00000  Uiso   1.00
Pt2699 Pt    0.68027   0.25964   0.44005   0.00000  Uiso   1.00
Pt2700 Pt    0.50000   0.19955   0.55995   0.00000  Uiso   1.00
Pt2701 Pt    0.68027   0.74036   0.44005   0.00000  Uiso   1.00
Pt2702 Pt    0.74036   0.68027   0.44005   0.00000  Uiso   1.00
Pt2703 Pt    0.31973   0.74036   0.55995   0.00000  Uiso   1.00
Pt2704 Pt    0.25964   0.31973   0.44005   0.00000  Uiso   1.00
Pt2705 Pt    0.31973   0.74036   0.44005   0.00000  Uiso   1.00
Pt2706 Pt    0.80045   0.50000   0.44005   0.00000  Uiso   1.00
Pt2707 Pt    0.19955   0.50000   0.55995   0.00000  Uiso   1.00
Pt2708 Pt    0.74036   0.68027   0.55995   0.00000  Uiso   1.00
Pt2709 Pt    0.25964   0.68027   0.55995   0.00000  Uiso   1.00
Pt2710 Pt    0.80045   0.50000   0.55995   0.00000  Uiso   1.00
Pt2711 Pt    0.68027   0.74036   0.55995   0.00000  Uiso   1.00
Pt2712 Pt    0.19955   0.50000   0.44005   0.00000  Uiso   1.00
Pt2713 Pt    0.50000   0.80045   0.55995   0.00000  Uiso   1.00
Pt2714 Pt    0.50000   0.80045   0.44005   0.00000  Uiso   1.00
Pt2715 Pt    0.25964   0.68027   0.44005   0.00000  Uiso   1.00
Pt2716 Pt    0.40986   0.22959   0.61990   0.00000  Uiso   1.00
Pt2717 Pt    0.22959   0.40986   0.61990   0.00000  Uiso   1.00
Pt2718 Pt    0.40986   0.22959   0.38010   0.00000  Uiso   1.00
Pt2719 Pt    0.22959   0.40986   0.38010   0.00000  Uiso   1.00
Pt2720 Pt    0.59014   0.22959   0.61990   0.00000  Uiso   1.00
Pt2721 Pt    0.59014   0.22959   0.38010   0.00000  Uiso   1.00
Pt2722 Pt    0.22959   0.59014   0.61990   0.00000  Uiso   1.00
Pt2723 Pt    0.22959   0.59014   0.38010   0.00000  Uiso   1.00
Pt2724 Pt    0.77041   0.40986   0.38010   0.00000  Uiso   1.00
Pt2725 Pt    0.77041   0.40986   0.61990   0.00000  Uiso   1.00
Pt2726 Pt    0.40986   0.77041   0.38010   0.00000  Uiso   1.00
Pt2727 Pt    0.40986   0.77041   0.61990   0.00000  Uiso   1.00
Pt2728 Pt    0.77041   0.59014   0.38010   0.00000  Uiso   1.00
Pt2729 Pt    0.59014   0.77041   0.38010   0.00000  Uiso   1.00
Pt2730 Pt    0.59014   0.77041   0.61990   0.00000  Uiso   1.00
Pt2731 Pt    0.77041   0.59014   0.61990   0.00000  Uiso   1.00
Pt2732 Pt    0.34977   0.22959   0.50000   0.00000  Uiso   1.00
Pt2733 Pt    0.22959   0.34977   0.50000   0.00000  Uiso   1.00
Pt2734 Pt    0.65023   0.22959   0.50000   0.00000  Uiso   1.00
Pt2735 Pt    0.22959   0.65023   0.50000   0.00000  Uiso   1.00
Pt2736 Pt    0.77041   0.34977   0.50000   0.00000  Uiso   1.00
Pt2737 Pt    0.34977   0.77041   0.50000   0.00000  Uiso   1.00
Pt2738 Pt    0.65023   0.77041   0.50000   0.00000  Uiso   1.00
Pt2739 Pt    0.77041   0.65023   0.50000   0.00000  Uiso   1.00
Pt2740 Pt    0.43991   0.43991   0.79976   0.00000  Uiso   1.00
Pt2741 Pt    0.56009   0.56009   0.20024   0.00000  Uiso   1.00
Pt2742 Pt    0.56009   0.43991   0.20024   0.00000  Uiso   1.00
Pt2743 Pt    0.56009   0.43991   0.79976   0.00000  Uiso   1.00
Pt2744 Pt    0.43991   0.56009   0.79976   0.00000  Uiso   1.00
Pt2745 Pt    0.43991   0.56009   0.20024   0.00000  Uiso   1.00
Pt2746 Pt    0.56009   0.56009   0.79976   0.00000  Uiso   1.00
Pt2747 Pt    0.43991   0.43991   0.20024   0.00000  Uiso   1.00
Pt2748 Pt    0.31973   0.31973   0.67985   0.00000  Uiso   1.00
Pt2749 Pt    0.68027   0.31973   0.67985   0.00000  Uiso   1.00
Pt2750 Pt    0.31973   0.68027   0.67985   0.00000  Uiso   1.00
Pt2751 Pt    0.68027   0.31973   0.32015   0.00000  Uiso   1.00
Pt2752 Pt    0.31973   0.68027   0.32015   0.00000  Uiso   1.00
Pt2753 Pt    0.31973   0.31973   0.32015   0.00000  Uiso   1.00
Pt2754 Pt    0.68027   0.68027   0.32015   0.00000  Uiso   1.00
Pt2755 Pt    0.68027   0.68027   0.67985   0.00000  Uiso   1.00
Pt2756 Pt    0.43991   0.19955   0.55995   0.00000  Uiso   1.00
Pt2757 Pt    0.43991   0.19955   0.44005   0.00000  Uiso   1.00
Pt2758 Pt    0.56009   0.19955   0.55995   0.00000  Uiso   1.00
Pt2759 Pt    0.56009   0.19955   0.44005   0.00000  Uiso   1.00
Pt2760 Pt    0.19955   0.43991   0.55995   0.00000  Uiso   1.00
Pt2761 Pt    0.80045   0.43991   0.55995   0.00000  Uiso   1.00
Pt2762 Pt    0.19955   0.43991   0.44005   0.00000  Uiso   1.00
Pt2763 Pt    0.80045   0.43991   0.44005   0.00000  Uiso   1.00
Pt2764 Pt    0.56009   0.80045   0.55995   0.00000  Uiso   1.00
Pt2765 Pt    0.19955   0.56009   0.44005   0.00000  Uiso   1.00
Pt2766 Pt    0.56009   0.80045   0.44005   0.00000  Uiso   1.00
Pt2767 Pt    0.19955   0.56009   0.55995   0.00000  Uiso   1.00
Pt2768 Pt    0.80045   0.56009   0.44005   0.00000  Uiso   1.00
Pt2769 Pt    0.80045   0.56009   0.55995   0.00000  Uiso   1.00
Pt2770 Pt    0.43991   0.80045   0.44005   0.00000  Uiso   1.00
Pt2771 Pt    0.43991   0.80045   0.55995   0.00000  Uiso   1.00
Pt2772 Pt    0.34977   0.34977   0.73981   0.00000  Uiso   1.00
Pt2773 Pt    0.34977   0.34977   0.26019   0.00000  Uiso   1.00
Pt2774 Pt    0.46995   0.28968   0.73981   0.00000  Uiso   1.00
Pt2775 Pt    0.28968   0.46995   0.73981   0.00000  Uiso   1.00
Pt2776 Pt    0.46995   0.28968   0.26019   0.00000  Uiso   1.00
Pt2777 Pt    0.28968   0.46995   0.26019   0.00000  Uiso   1.00
Pt2778 Pt    0.53005   0.28968   0.73981   0.00000  Uiso   1.00
Pt2779 Pt    0.28968   0.53005   0.73981   0.00000  Uiso   1.00
Pt2780 Pt    0.53005   0.28968   0.26019   0.00000  Uiso   1.00
Pt2781 Pt    0.28968   0.53005   0.26019   0.00000  Uiso   1.00
Pt2782 Pt    0.65023   0.34977   0.73981   0.00000  Uiso   1.00
Pt2783 Pt    0.34977   0.65023   0.73981   0.00000  Uiso   1.00
Pt2784 Pt    0.65023   0.34977   0.26019   0.00000  Uiso   1.00
Pt2785 Pt    0.34977   0.65023   0.26019   0.00000  Uiso   1.00
Pt2786 Pt    0.71032   0.46995   0.73981   0.00000  Uiso   1.00
Pt2787 Pt    0.46995   0.71032   0.73981   0.00000  Uiso   1.00
Pt2788 Pt    0.71032   0.46995   0.26019   0.00000  Uiso   1.00
Pt2789 Pt    0.46995   0.71032   0.26019   0.00000  Uiso   1.00
Pt2790 Pt    0.71032   0.53005   0.73981   0.00000  Uiso   1.00
Pt2791 Pt    0.53005   0.71032   0.73981   0.00000  Uiso   1.00
Pt2792 Pt    0.71032   0.53005   0.26019   0.00000  Uiso   1.00
Pt2793 Pt    0.53005   0.71032   0.26019   0.00000  Uiso   1.00
Pt2794 Pt    0.65023   0.65023   0.73981   0.00000  Uiso   1.00
Pt2795 Pt    0.65023   0.65023   0.26019   0.00000  Uiso   1.00
Pt2796 Pt    0.28968   0.28968   0.61990   0.00000  Uiso   1.00
Pt2797 Pt    0.28968   0.28968   0.38010   0.00000  Uiso   1.00
Pt2798 Pt    0.71032   0.28968   0.61990   0.00000  Uiso   1.00
Pt2799 Pt    0.71032   0.28968   0.38010   0.00000  Uiso   1.00
Pt2800 Pt    0.28968   0.71032   0.61990   0.00000  Uiso   1.00
Pt2801 Pt    0.28968   0.71032   0.38010   0.00000  Uiso   1.00
Pt2802 Pt    0.71032   0.71032   0.38010   0.00000  Uiso   1.00
Pt2803 Pt    0.71032   0.71032   0.61990   0.00000  Uiso   1.00
Pt2804 Pt    0.50000   0.37982   0.79976   0.00000  Uiso   1.00
Pt2805 Pt    0.62018   0.50000   0.79976   0.00000  Uiso   1.00
Pt2806 Pt    0.62018   0.50000   0.20024   0.00000  Uiso   1.00
Pt2807 Pt    0.37982   0.50000   0.79976   0.00000  Uiso   1.00
Pt2808 Pt    0.50000   0.62018   0.79976   0.00000  Uiso   1.00
Pt2809 Pt    0.50000   0.62018   0.20024   0.00000  Uiso   1.00
Pt2810 Pt    0.50000   0.37982   0.20024   0.00000  Uiso   1.00
Pt2811 Pt    0.37982   0.50000   0.20024   0.00000  Uiso   1.00
Pt2812 Pt    0.62018   0.25964   0.67985   0.00000  Uiso   1.00
Pt2813 Pt    0.37982   0.25964   0.67985   0.00000  Uiso   1.00
Pt2814 Pt    0.25964   0.37982   0.67985   0.00000  Uiso   1.00
Pt2815 Pt    0.25964   0.62018   0.67985   0.00000  Uiso   1.00
Pt2816 Pt    0.74036   0.37982   0.32015   0.00000  Uiso   1.00
Pt2817 Pt    0.74036   0.37982   0.67985   0.00000  Uiso   1.00
Pt2818 Pt    0.62018   0.74036   0.67985   0.00000  Uiso   1.00
Pt2819 Pt    0.62018   0.74036   0.32015   0.00000  Uiso   1.00
Pt2820 Pt    0.74036   0.62018   0.67985   0.00000  Uiso   1.00
Pt2821 Pt    0.74036   0.62018   0.32015   0.00000  Uiso   1.00
Pt2822 Pt    0.62018   0.25964   0.32015   0.00000  Uiso   1.00
Pt2823 Pt    0.37982   0.25964   0.32015   0.00000  Uiso   1.00
Pt2824 Pt    0.25964   0.37982   0.32015   0.00000  Uiso   1.00
Pt2825 Pt    0.25964   0.62018   0.32015   0.00000  Uiso   1.00
Pt2826 Pt    0.37982   0.74036   0.32015   0.00000  Uiso   1.00
Pt2827 Pt    0.37982   0.74036   0.67985   0.00000  Uiso   1.00
Pt2828 Pt    0.43991   0.37982   0.79976   0.00000  Uiso   1.00
Pt2829 Pt    0.37982   0.43991   0.79976   0.00000  Uiso   1.00
Pt2830 Pt    0.43991   0.62018   0.20024   0.00000  Uiso   1.00
Pt2831 Pt    0.37982   0.56009   0.79976   0.00000  Uiso   1.00
Pt2832 Pt    0.62018   0.56009   0.79976   0.00000  Uiso   1.00
Pt2833 Pt    0.62018   0.43991   0.20024   0.00000  Uiso   1.00
Pt2834 Pt    0.56009   0.37982   0.79976   0.00000  Uiso   1.00
Pt2835 Pt    0.56009   0.62018   0.79976   0.00000  Uiso   1.00
Pt2836 Pt    0.62018   0.43991   0.79976   0.00000  Uiso   1.00
Pt2837 Pt    0.62018   0.56009   0.20024   0.00000  Uiso   1.00
Pt2838 Pt    0.56009   0.62018   0.20024   0.00000  Uiso   1.00
Pt2839 Pt    0.43991   0.62018   0.79976   0.00000  Uiso   1.00
Pt2840 Pt    0.43991   0.37982   0.20024   0.00000  Uiso   1.00
Pt2841 Pt    0.37982   0.43991   0.20024   0.00000  Uiso   1.00
Pt2842 Pt    0.56009   0.37982   0.20024   0.00000  Uiso   1.00
Pt2843 Pt    0.37982   0.56009   0.20024   0.00000  Uiso   1.00
Pt2844 Pt    0.62018   0.19955   0.44005   0.00000  Uiso   1.00
Pt2845 Pt    0.62018   0.19955   0.55995   0.00000  Uiso   1.00
Pt2846 Pt    0.37982   0.19955   0.44005   0.00000  Uiso   1.00
Pt2847 Pt    0.19955   0.37982   0.55995   0.00000  Uiso   1.00
Pt2848 Pt    0.37982   0.19955   0.55995   0.00000  Uiso   1.00
Pt2849 Pt    0.80045   0.37982   0.44005   0.00000  Uiso   1.00
Pt2850 Pt    0.19955   0.37982   0.44005   0.00000  Uiso   1.00
Pt2851 Pt    0.80045   0.37982   0.55995   0.00000  Uiso   1.00
Pt2852 Pt    0.62018   0.80045   0.44005   0.00000  Uiso   1.00
Pt2853 Pt    0.80045   0.62018   0.44005   0.00000  Uiso   1.00
Pt2854 Pt    0.80045   0.62018   0.55995   0.00000  Uiso   1.00
Pt2855 Pt    0.19955   0.62018   0.44005   0.00000  Uiso   1.00
Pt2856 Pt    0.62018   0.80045   0.55995   0.00000  Uiso   1.00
Pt2857 Pt    0.19955   0.62018   0.55995   0.00000  Uiso   1.00
Pt2858 Pt    0.37982   0.80045   0.55995   0.00000  Uiso   1.00
Pt2859 Pt    0.37982   0.80045   0.44005   0.00000  Uiso   1.00
Pt2860 Pt    0.40986   0.28968   0.73981   0.00000  Uiso   1.00
Pt2861 Pt    0.28968   0.40986   0.73981   0.00000  Uiso   1.00
Pt2862 Pt    0.40986   0.28968   0.26019   0.00000  Uiso   1.00
Pt2863 Pt    0.28968   0.40986   0.26019   0.00000  Uiso   1.00
Pt2864 Pt    0.59014   0.28968   0.73981   0.00000  Uiso   1.00
Pt2865 Pt    0.59014   0.28968   0.26019   0.00000  Uiso   1.00
Pt2866 Pt    0.28968   0.59014   0.73981   0.00000  Uiso   1.00
Pt2867 Pt    0.28968   0.59014   0.26019   0.00000  Uiso   1.00
Pt2868 Pt    0.71032   0.40986   0.73981   0.00000  Uiso   1.00
Pt2869 Pt    0.40986   0.71032   0.73981   0.00000  Uiso   1.00
Pt2870 Pt    0.71032   0.40986   0.26019   0.00000  Uiso   1.00
Pt2871 Pt    0.40986   0.71032   0.26019   0.00000  Uiso   1.00
Pt2872 Pt    0.59014   0.71032   0.73981   0.00000  Uiso   1.00
Pt2873 Pt    0.71032   0.59014   0.73981   0.00000  Uiso   1.00
Pt2874 Pt    0.59014   0.71032   0.26019   0.00000  Uiso   1.00
Pt2875 Pt    0.71032   0.59014   0.26019   0.00000  Uiso   1.00
Pt2876 Pt    0.34977   0.22959   0.61990   0.00000  Uiso   1.00
Pt2877 Pt    0.22959   0.34977   0.61990   0.00000  Uiso   1.00
Pt2878 Pt    0.34977   0.22959   0.38010   0.00000  Uiso   1.00
Pt2879 Pt    0.22959   0.34977   0.38010   0.00000  Uiso   1.00
Pt2880 Pt    0.65023   0.22959   0.61990   0.00000  Uiso   1.00
Pt2881 Pt    0.65023   0.22959   0.38010   0.00000  Uiso   1.00
Pt2882 Pt    0.22959   0.65023   0.61990   0.00000  Uiso   1.00
Pt2883 Pt    0.22959   0.65023   0.38010   0.00000  Uiso   1.00
Pt2884 Pt    0.77041   0.34977   0.38010   0.00000  Uiso   1.00
Pt2885 Pt    0.34977   0.77041   0.61990   0.00000  Uiso   1.00
Pt2886 Pt    0.34977   0.77041   0.38010   0.00000  Uiso   1.00
Pt2887 Pt    0.77041   0.34977   0.61990   0.00000  Uiso   1.00
Pt2888 Pt    0.77041   0.65023   0.61990   0.00000  Uiso   1.00
Pt2889 Pt    0.77041   0.65023   0.38010   0.00000  Uiso   1.00
Pt2890 Pt    0.65023   0.77041   0.38010   0.00000  Uiso   1.00
Pt2891 Pt    0.65023   0.77041   0.61990   0.00000  Uiso   1.00
Pt2892 Pt    0.46995   0.16950   0.50000   0.00000  Uiso   1.00
Pt2893 Pt    0.16950   0.46995   0.50000   0.00000  Uiso   1.00
Pt2894 Pt    0.53005   0.16950   0.50000   0.00000  Uiso   1.00
Pt2895 Pt    0.16950   0.53005   0.50000   0.00000  Uiso   1.00
Pt2896 Pt    0.83050   0.46995   0.50000   0.00000  Uiso   1.00
Pt2897 Pt    0.46995   0.83050   0.50000   0.00000  Uiso   1.00
Pt2898 Pt    0.83050   0.53005   0.50000   0.00000  Uiso   1.00
Pt2899 Pt    0.53005   0.83050   0.50000   0.00000  Uiso   1.00
