data_con6.63_2nm_CS_full
_audit_creation_date              2024-08-20
_audit_creation_method            'Materials Studio'
_symmetry_space_group_name_H-M    'P1'
_symmetry_Int_Tables_number       1
_symmetry_cell_setting            triclinic
loop_
_symmetry_equiv_pos_as_xyz
  x,y,z
_cell_length_a                    60.0000
_cell_length_b                    60.0000
_cell_length_c                    60.0000
_cell_angle_alpha                 90.0000
_cell_angle_beta                  90.0000
_cell_angle_gamma                 90.0000
loop_
_atom_site_label
_atom_site_type_symbol
_atom_site_fract_x
_atom_site_fract_y
_atom_site_fract_z
_atom_site_U_iso_or_equiv
_atom_site_adp_type
_atom_site_occupancy
Co1    Co    0.49970   0.49950   0.49945   0.00000  Uiso   1.00
Co2    Co    0.52029   0.47904   0.52866   0.00000  Uiso   1.00
Co3    Co    0.52029   0.51995   0.47024   0.00000  Uiso   1.00
Co4    Co    0.54088   0.49950   0.49945   0.00000  Uiso   1.00
Co5    Co    0.47911   0.47904   0.52866   0.00000  Uiso   1.00
Co6    Co    0.47912   0.52022   0.52848   0.00000  Uiso   1.00
Co7    Co    0.45852   0.49950   0.49945   0.00000  Uiso   1.00
Co8    Co    0.49970   0.45831   0.49964   0.00000  Uiso   1.00
Co9    Co    0.47912   0.47877   0.47042   0.00000  Uiso   1.00
Co10   Co    0.49971   0.54067   0.49927   0.00000  Uiso   1.00
Co11   Co    0.52030   0.52022   0.52848   0.00000  Uiso   1.00
Co12   Co    0.47911   0.51995   0.47024   0.00000  Uiso   1.00
Co13   Co    0.52029   0.47877   0.47042   0.00000  Uiso   1.00
Co14   Co    0.45853   0.54067   0.49927   0.00000  Uiso   1.00
Co15   Co    0.49970   0.49922   0.44122   0.00000  Uiso   1.00
Co16   Co    0.54088   0.54067   0.49927   0.00000  Uiso   1.00
Co17   Co    0.54088   0.45832   0.49964   0.00000  Uiso   1.00
Co18   Co    0.45853   0.45831   0.49964   0.00000  Uiso   1.00
Co19   Co    0.49971   0.49976   0.55769   0.00000  Uiso   1.00
Co20   Co    0.56147   0.47904   0.52866   0.00000  Uiso   1.00
Co21   Co    0.56146   0.51995   0.47024   0.00000  Uiso   1.00
Co22   Co    0.47912   0.56113   0.47005   0.00000  Uiso   1.00
Co23   Co    0.49970   0.45859   0.55788   0.00000  Uiso   1.00
Co24   Co    0.43794   0.52022   0.52848   0.00000  Uiso   1.00
Co25   Co    0.52029   0.56113   0.47005   0.00000  Uiso   1.00
Co26   Co    0.56147   0.47876   0.47043   0.00000  Uiso   1.00
Co27   Co    0.49970   0.54041   0.44103   0.00000  Uiso   1.00
Co28   Co    0.54088   0.49922   0.44122   0.00000  Uiso   1.00
Co29   Co    0.52029   0.43786   0.52885   0.00000  Uiso   1.00
Co30   Co    0.43794   0.47876   0.47043   0.00000  Uiso   1.00
Co31   Co    0.49970   0.54094   0.55750   0.00000  Uiso   1.00
Co32   Co    0.45853   0.49976   0.55769   0.00000  Uiso   1.00
Co33   Co    0.47912   0.43759   0.47062   0.00000  Uiso   1.00
Co34   Co    0.43793   0.47904   0.52866   0.00000  Uiso   1.00
Co35   Co    0.47912   0.56140   0.52828   0.00000  Uiso   1.00
Co36   Co    0.43794   0.51995   0.47024   0.00000  Uiso   1.00
Co37   Co    0.47911   0.43786   0.52885   0.00000  Uiso   1.00
Co38   Co    0.54088   0.49976   0.55769   0.00000  Uiso   1.00
Co39   Co    0.45853   0.49922   0.44121   0.00000  Uiso   1.00
Co40   Co    0.52029   0.56140   0.52828   0.00000  Uiso   1.00
Co41   Co    0.49971   0.45804   0.44141   0.00000  Uiso   1.00
Co42   Co    0.52030   0.43759   0.47062   0.00000  Uiso   1.00
Co43   Co    0.56147   0.52022   0.52848   0.00000  Uiso   1.00
Co44   Co    0.58205   0.49950   0.49945   0.00000  Uiso   1.00
Co45   Co    0.54088   0.45859   0.55788   0.00000  Uiso   1.00
Co46   Co    0.54088   0.54041   0.44103   0.00000  Uiso   1.00
Co47   Co    0.49970   0.58185   0.49908   0.00000  Uiso   1.00
Co48   Co    0.45852   0.54041   0.44103   0.00000  Uiso   1.00
Co49   Co    0.45853   0.45804   0.44141   0.00000  Uiso   1.00
Co50   Co    0.54088   0.54094   0.55749   0.00000  Uiso   1.00
Co51   Co    0.45853   0.54094   0.55750   0.00000  Uiso   1.00
Co52   Co    0.54088   0.45804   0.44141   0.00000  Uiso   1.00
Co53   Co    0.41735   0.49950   0.49945   0.00000  Uiso   1.00
Co54   Co    0.45852   0.45859   0.55788   0.00000  Uiso   1.00
Co55   Co    0.49971   0.41714   0.49983   0.00000  Uiso   1.00
Co56   Co    0.41735   0.54067   0.49927   0.00000  Uiso   1.00
Co57   Co    0.43794   0.56113   0.47005   0.00000  Uiso   1.00
Co58   Co    0.47912   0.47850   0.41220   0.00000  Uiso   1.00
Co59   Co    0.56147   0.56139   0.52829   0.00000  Uiso   1.00
Co60   Co    0.47911   0.51967   0.41201   0.00000  Uiso   1.00
Co61   Co    0.56147   0.43786   0.52885   0.00000  Uiso   1.00
Co62   Co    0.54088   0.58185   0.49908   0.00000  Uiso   1.00
Co63   Co    0.43794   0.43759   0.47062   0.00000  Uiso   1.00
Co64   Co    0.52029   0.47850   0.41220   0.00000  Uiso   1.00
Co65   Co    0.52029   0.51967   0.41201   0.00000  Uiso   1.00
Co66   Co    0.52029   0.52048   0.58671   0.00000  Uiso   1.00
Co67   Co    0.43794   0.56139   0.52829   0.00000  Uiso   1.00
Co68   Co    0.58206   0.54067   0.49927   0.00000  Uiso   1.00
Co69   Co    0.56147   0.56113   0.47005   0.00000  Uiso   1.00
Co70   Co    0.58206   0.45832   0.49964   0.00000  Uiso   1.00
Co71   Co    0.41735   0.45831   0.49964   0.00000  Uiso   1.00
Co72   Co    0.47911   0.52048   0.58671   0.00000  Uiso   1.00
Co73   Co    0.45853   0.58185   0.49907   0.00000  Uiso   1.00
Co74   Co    0.45853   0.41714   0.49983   0.00000  Uiso   1.00
Co75   Co    0.52029   0.47931   0.58690   0.00000  Uiso   1.00
Co76   Co    0.54088   0.41714   0.49983   0.00000  Uiso   1.00
Co77   Co    0.43794   0.43786   0.52885   0.00000  Uiso   1.00
Co78   Co    0.47912   0.47931   0.58690   0.00000  Uiso   1.00
Co79   Co    0.56147   0.43759   0.47062   0.00000  Uiso   1.00
Co80   Co    0.49971   0.58158   0.44084   0.00000  Uiso   1.00
Co81   Co    0.58206   0.49922   0.44122   0.00000  Uiso   1.00
Co82   Co    0.41735   0.49922   0.44121   0.00000  Uiso   1.00
Co83   Co    0.41735   0.49976   0.55769   0.00000  Uiso   1.00
Co84   Co    0.49970   0.58212   0.55730   0.00000  Uiso   1.00
Co85   Co    0.49970   0.41687   0.44160   0.00000  Uiso   1.00
Co86   Co    0.58206   0.49976   0.55769   0.00000  Uiso   1.00
Co87   Co    0.49970   0.41740   0.55807   0.00000  Uiso   1.00
Co88   Co    0.60264   0.51995   0.47024   0.00000  Uiso   1.00
Co89   Co    0.45853   0.58158   0.44084   0.00000  Uiso   1.00
Co90   Co    0.39676   0.52022   0.52848   0.00000  Uiso   1.00
Co91   Co    0.41735   0.45804   0.44141   0.00000  Uiso   1.00
Co92   Co    0.52029   0.43814   0.58709   0.00000  Uiso   1.00
Co93   Co    0.60264   0.47876   0.47043   0.00000  Uiso   1.00
Co94   Co    0.58205   0.54041   0.44103   0.00000  Uiso   1.00
Co95   Co    0.43794   0.51967   0.41201   0.00000  Uiso   1.00
Co96   Co    0.52029   0.56166   0.58652   0.00000  Uiso   1.00
Co97   Co    0.52029   0.60257   0.52809   0.00000  Uiso   1.00
Co98   Co    0.43794   0.47850   0.41220   0.00000  Uiso   1.00
Co99   Co    0.47911   0.60230   0.46987   0.00000  Uiso   1.00
Co100  Co    0.56147   0.52048   0.58671   0.00000  Uiso   1.00
Co101  Co    0.39676   0.47876   0.47043   0.00000  Uiso   1.00
Co102  Co    0.52029   0.39642   0.47081   0.00000  Uiso   1.00
Co103  Co    0.54088   0.41740   0.55807   0.00000  Uiso   1.00
Co104  Co    0.52029   0.60230   0.46987   0.00000  Uiso   1.00
Co105  Co    0.52029   0.43732   0.41239   0.00000  Uiso   1.00
Co106  Co    0.54088   0.58212   0.55730   0.00000  Uiso   1.00
Co107  Co    0.47911   0.56086   0.41182   0.00000  Uiso   1.00
Co108  Co    0.47911   0.56166   0.58652   0.00000  Uiso   1.00
Co109  Co    0.60265   0.52022   0.52848   0.00000  Uiso   1.00
Co110  Co    0.54088   0.58158   0.44084   0.00000  Uiso   1.00
Co111  Co    0.58206   0.54094   0.55749   0.00000  Uiso   1.00
Co112  Co    0.52029   0.56086   0.41182   0.00000  Uiso   1.00
Co113  Co    0.41735   0.54094   0.55750   0.00000  Uiso   1.00
Co114  Co    0.56147   0.51968   0.41200   0.00000  Uiso   1.00
Co115  Co    0.54088   0.41687   0.44160   0.00000  Uiso   1.00
Co116  Co    0.39676   0.51995   0.47024   0.00000  Uiso   1.00
Co117  Co    0.45852   0.58212   0.55730   0.00000  Uiso   1.00
Co118  Co    0.58206   0.45804   0.44141   0.00000  Uiso   1.00
Co119  Co    0.56147   0.47850   0.41220   0.00000  Uiso   1.00
Co120  Co    0.47911   0.39642   0.47081   0.00000  Uiso   1.00
Co121  Co    0.47911   0.43813   0.58709   0.00000  Uiso   1.00
Co122  Co    0.56147   0.47931   0.58690   0.00000  Uiso   1.00
Co123  Co    0.45852   0.41687   0.44160   0.00000  Uiso   1.00
Co124  Co    0.41735   0.54041   0.44103   0.00000  Uiso   1.00
Co125  Co    0.43794   0.52048   0.58671   0.00000  Uiso   1.00
Co126  Co    0.47911   0.60257   0.52809   0.00000  Uiso   1.00
Co127  Co    0.39676   0.47904   0.52866   0.00000  Uiso   1.00
Co128  Co    0.52029   0.39668   0.52904   0.00000  Uiso   1.00
Co129  Co    0.43794   0.47931   0.58691   0.00000  Uiso   1.00
Co130  Co    0.47911   0.43732   0.41239   0.00000  Uiso   1.00
Co131  Co    0.47912   0.39668   0.52904   0.00000  Uiso   1.00
Co132  Co    0.58206   0.45859   0.55788   0.00000  Uiso   1.00
Co133  Co    0.41734   0.45859   0.55788   0.00000  Uiso   1.00
Co134  Co    0.45852   0.41740   0.55807   0.00000  Uiso   1.00
Co135  Co    0.60265   0.47904   0.52866   0.00000  Uiso   1.00
Co136  Co    0.49971   0.49895   0.38299   0.00000  Uiso   1.00
Co137  Co    0.58206   0.58185   0.49908   0.00000  Uiso   1.00
Co138  Co    0.41735   0.58185   0.49907   0.00000  Uiso   1.00
Co139  Co    0.41735   0.41714   0.49983   0.00000  Uiso   1.00
Co140  Co    0.49970   0.50003   0.61592   0.00000  Uiso   1.00
Co141  Co    0.58206   0.41714   0.49983   0.00000  Uiso   1.00
Co142  Co    0.39677   0.56113   0.47005   0.00000  Uiso   1.00
Co143  Co    0.45853   0.49895   0.38299   0.00000  Uiso   1.00
Co144  Co    0.56147   0.56166   0.58652   0.00000  Uiso   1.00
Co145  Co    0.56146   0.60257   0.52809   0.00000  Uiso   1.00
Co146  Co    0.60264   0.56139   0.52829   0.00000  Uiso   1.00
Co147  Co    0.56147   0.39642   0.47081   0.00000  Uiso   1.00
Co148  Co    0.60265   0.43786   0.52885   0.00000  Uiso   1.00
Co149  Co    0.43794   0.60230   0.46987   0.00000  Uiso   1.00
Co150  Co    0.39676   0.43759   0.47062   0.00000  Uiso   1.00
Co151  Co    0.56146   0.43732   0.41239   0.00000  Uiso   1.00
Co152  Co    0.49970   0.54121   0.61573   0.00000  Uiso   1.00
Co153  Co    0.39676   0.56139   0.52829   0.00000  Uiso   1.00
Co154  Co    0.54088   0.50003   0.61592   0.00000  Uiso   1.00
Co155  Co    0.43793   0.56086   0.41182   0.00000  Uiso   1.00
Co156  Co    0.49970   0.62303   0.49888   0.00000  Uiso   1.00
Co157  Co    0.49970   0.37596   0.50002   0.00000  Uiso   1.00
Co158  Co    0.49970   0.54013   0.38279   0.00000  Uiso   1.00
Co159  Co    0.56147   0.60231   0.46986   0.00000  Uiso   1.00
Co160  Co    0.49970   0.45778   0.38317   0.00000  Uiso   1.00
Co161  Co    0.56147   0.56086   0.41182   0.00000  Uiso   1.00
Co162  Co    0.60265   0.43759   0.47062   0.00000  Uiso   1.00
Co163  Co    0.54088   0.49895   0.38299   0.00000  Uiso   1.00
Co164  Co    0.37617   0.49950   0.49945   0.00000  Uiso   1.00
Co165  Co    0.60265   0.56113   0.47005   0.00000  Uiso   1.00
Co166  Co    0.43793   0.56166   0.58652   0.00000  Uiso   1.00
Co167  Co    0.43794   0.60257   0.52809   0.00000  Uiso   1.00
Co168  Co    0.56147   0.39668   0.52904   0.00000  Uiso   1.00
Co169  Co    0.62324   0.49949   0.49946   0.00000  Uiso   1.00
Co170  Co    0.43793   0.39642   0.47081   0.00000  Uiso   1.00
Co171  Co    0.43794   0.43732   0.41239   0.00000  Uiso   1.00
Co172  Co    0.39676   0.43786   0.52885   0.00000  Uiso   1.00
Co173  Co    0.45852   0.50003   0.61592   0.00000  Uiso   1.00
Co174  Co    0.43794   0.39668   0.52905   0.00000  Uiso   1.00
Co175  Co    0.56147   0.43813   0.58709   0.00000  Uiso   1.00
Co176  Co    0.49970   0.45885   0.61612   0.00000  Uiso   1.00
Co177  Co    0.43793   0.43813   0.58709   0.00000  Uiso   1.00
Co178  Co    0.41735   0.58158   0.44084   0.00000  Uiso   1.00
Co179  Co    0.37618   0.54067   0.49927   0.00000  Uiso   1.00
Co180  Co    0.58205   0.58212   0.55730   0.00000  Uiso   1.00
Co181  Co    0.58205   0.41687   0.44160   0.00000  Uiso   1.00
Co182  Co    0.62323   0.45831   0.49964   0.00000  Uiso   1.00
Co183  Co    0.54088   0.54121   0.61573   0.00000  Uiso   1.00
Co184  Co    0.54088   0.37596   0.50002   0.00000  Uiso   1.00
Co185  Co    0.58206   0.41740   0.55807   0.00000  Uiso   1.00
Co186  Co    0.45853   0.54013   0.38280   0.00000  Uiso   1.00
Co187  Co    0.54088   0.62303   0.49888   0.00000  Uiso   1.00
Co188  Co    0.54088   0.45778   0.38317   0.00000  Uiso   1.00
Co189  Co    0.45852   0.62303   0.49888   0.00000  Uiso   1.00
Co190  Co    0.62324   0.54067   0.49927   0.00000  Uiso   1.00
Co191  Co    0.37617   0.45831   0.49964   0.00000  Uiso   1.00
Co192  Co    0.45852   0.45778   0.38317   0.00000  Uiso   1.00
Co193  Co    0.41735   0.58212   0.55730   0.00000  Uiso   1.00
Co194  Co    0.45852   0.54121   0.61573   0.00000  Uiso   1.00
Co195  Co    0.54088   0.54013   0.38279   0.00000  Uiso   1.00
Co196  Co    0.58206   0.58158   0.44084   0.00000  Uiso   1.00
Co197  Co    0.41735   0.41687   0.44160   0.00000  Uiso   1.00
Co198  Co    0.45852   0.37596   0.50002   0.00000  Uiso   1.00
Co199  Co    0.54088   0.45886   0.61611   0.00000  Uiso   1.00
Co200  Co    0.41735   0.41740   0.55807   0.00000  Uiso   1.00
Co201  Co    0.45853   0.45885   0.61612   0.00000  Uiso   1.00
Co202  Co    0.39677   0.47850   0.41220   0.00000  Uiso   1.00
Co203  Co    0.47912   0.60203   0.41163   0.00000  Uiso   1.00
Co204  Co    0.37617   0.49922   0.44122   0.00000  Uiso   1.00
Co205  Co    0.60265   0.52049   0.58670   0.00000  Uiso   1.00
Co206  Co    0.47912   0.60284   0.58633   0.00000  Uiso   1.00
Co207  Co    0.39676   0.51968   0.41200   0.00000  Uiso   1.00
Co208  Co    0.62323   0.49922   0.44121   0.00000  Uiso   1.00
Co209  Co    0.49971   0.62329   0.55712   0.00000  Uiso   1.00
Co210  Co    0.52030   0.60284   0.58633   0.00000  Uiso   1.00
Co211  Co    0.49970   0.37569   0.44179   0.00000  Uiso   1.00
Co212  Co    0.37617   0.49976   0.55770   0.00000  Uiso   1.00
Co213  Co    0.52030   0.60203   0.41163   0.00000  Uiso   1.00
Co214  Co    0.49970   0.62276   0.44065   0.00000  Uiso   1.00
Co215  Co    0.47912   0.39615   0.41257   0.00000  Uiso   1.00
Co216  Co    0.60265   0.47931   0.58690   0.00000  Uiso   1.00
Co217  Co    0.52029   0.39615   0.41257   0.00000  Uiso   1.00
Co218  Co    0.60265   0.51968   0.41200   0.00000  Uiso   1.00
Co219  Co    0.62324   0.49976   0.55769   0.00000  Uiso   1.00
Co220  Co    0.52029   0.39695   0.58728   0.00000  Uiso   1.00
Co221  Co    0.60265   0.47850   0.41220   0.00000  Uiso   1.00
Co222  Co    0.39676   0.52048   0.58671   0.00000  Uiso   1.00
Co223  Co    0.39676   0.47931   0.58691   0.00000  Uiso   1.00
Co224  Co    0.47911   0.39695   0.58728   0.00000  Uiso   1.00
Co225  Co    0.49970   0.37622   0.55826   0.00000  Uiso   1.00
Co226  Co    0.41735   0.49895   0.38299   0.00000  Uiso   1.00
Co227  Co    0.37618   0.45804   0.44141   0.00000  Uiso   1.00
Co228  Co    0.62323   0.54094   0.55750   0.00000  Uiso   1.00
Co229  Co    0.45853   0.62329   0.55712   0.00000  Uiso   1.00
Co230  Co    0.62323   0.54041   0.44103   0.00000  Uiso   1.00
Co231  Co    0.58206   0.50003   0.61592   0.00000  Uiso   1.00
Co232  Co    0.54088   0.62329   0.55712   0.00000  Uiso   1.00
Co233  Co    0.45853   0.62275   0.44066   0.00000  Uiso   1.00
Co234  Co    0.49970   0.41660   0.38337   0.00000  Uiso   1.00
Co235  Co    0.49971   0.58238   0.61554   0.00000  Uiso   1.00
Co236  Co    0.54088   0.37570   0.44178   0.00000  Uiso   1.00
Co237  Co    0.45853   0.37569   0.44179   0.00000  Uiso   1.00
Co238  Co    0.37617   0.54041   0.44103   0.00000  Uiso   1.00
Co239  Co    0.37617   0.54094   0.55750   0.00000  Uiso   1.00
Co240  Co    0.49970   0.41768   0.61631   0.00000  Uiso   1.00
Co241  Co    0.62324   0.45804   0.44141   0.00000  Uiso   1.00
Co242  Co    0.54088   0.62276   0.44065   0.00000  Uiso   1.00
Co243  Co    0.49970   0.58131   0.38261   0.00000  Uiso   1.00
Co244  Co    0.58206   0.49895   0.38299   0.00000  Uiso   1.00
Co245  Co    0.54088   0.37623   0.55825   0.00000  Uiso   1.00
Co246  Co    0.62324   0.45859   0.55788   0.00000  Uiso   1.00
Co247  Co    0.41735   0.50003   0.61592   0.00000  Uiso   1.00
Co248  Co    0.37617   0.45859   0.55788   0.00000  Uiso   1.00
Co249  Co    0.45853   0.37622   0.55826   0.00000  Uiso   1.00
Co250  Co    0.45852   0.41768   0.61630   0.00000  Uiso   1.00
Co251  Co    0.43794   0.60203   0.41163   0.00000  Uiso   1.00
Co252  Co    0.41735   0.45886   0.61611   0.00000  Uiso   1.00
Co253  Co    0.39676   0.43814   0.58709   0.00000  Uiso   1.00
Co254  Co    0.43794   0.39695   0.58728   0.00000  Uiso   1.00
Co255  Co    0.47912   0.64375   0.52791   0.00000  Uiso   1.00
Co256  Co    0.60264   0.60257   0.52809   0.00000  Uiso   1.00
Co257  Co    0.35559   0.52022   0.52848   0.00000  Uiso   1.00
Co258  Co    0.41735   0.54013   0.38280   0.00000  Uiso   1.00
Co259  Co    0.60264   0.43732   0.41239   0.00000  Uiso   1.00
Co260  Co    0.64382   0.47876   0.47043   0.00000  Uiso   1.00
Co261  Co    0.43794   0.60284   0.58633   0.00000  Uiso   1.00
Co262  Co    0.52029   0.64375   0.52791   0.00000  Uiso   1.00
Co263  Co    0.37617   0.58185   0.49908   0.00000  Uiso   1.00
Co264  Co    0.47912   0.51941   0.35378   0.00000  Uiso   1.00
Co265  Co    0.56147   0.39614   0.41258   0.00000  Uiso   1.00
Co266  Co    0.52029   0.52076   0.64494   0.00000  Uiso   1.00
Co267  Co    0.35558   0.47876   0.47043   0.00000  Uiso   1.00
Co268  Co    0.54088   0.41660   0.38337   0.00000  Uiso   1.00
Co269  Co    0.58205   0.62303   0.49888   0.00000  Uiso   1.00
Co270  Co    0.45853   0.58238   0.61554   0.00000  Uiso   1.00
Co271  Co    0.39676   0.60231   0.46986   0.00000  Uiso   1.00
Co272  Co    0.62323   0.58185   0.49907   0.00000  Uiso   1.00
Co273  Co    0.39676   0.56086   0.41182   0.00000  Uiso   1.00
Co274  Co    0.52029   0.35551   0.52923   0.00000  Uiso   1.00
Co275  Co    0.56147   0.39695   0.58728   0.00000  Uiso   1.00
Co276  Co    0.52029   0.35524   0.47100   0.00000  Uiso   1.00
Co277  Co    0.43794   0.39614   0.41258   0.00000  Uiso   1.00
Co278  Co    0.64382   0.52022   0.52848   0.00000  Uiso   1.00
Co279  Co    0.54088   0.58238   0.61554   0.00000  Uiso   1.00
Co280  Co    0.58205   0.45778   0.38317   0.00000  Uiso   1.00
Co281  Co    0.35558   0.51995   0.47024   0.00000  Uiso   1.00
Co282  Co    0.47911   0.35524   0.47100   0.00000  Uiso   1.00
Co283  Co    0.47911   0.64348   0.46967   0.00000  Uiso   1.00
Co284  Co    0.45853   0.41660   0.38336   0.00000  Uiso   1.00
Co285  Co    0.37617   0.41713   0.49984   0.00000  Uiso   1.00
Co286  Co    0.56147   0.60284   0.58633   0.00000  Uiso   1.00
Co287  Co    0.45852   0.58131   0.38261   0.00000  Uiso   1.00
Co288  Co    0.52030   0.51941   0.35378   0.00000  Uiso   1.00
Co289  Co    0.52029   0.64348   0.46967   0.00000  Uiso   1.00
Co290  Co    0.60264   0.56086   0.41182   0.00000  Uiso   1.00
Co291  Co    0.58206   0.45886   0.61611   0.00000  Uiso   1.00
Co292  Co    0.39676   0.60257   0.52809   0.00000  Uiso   1.00
Co293  Co    0.60265   0.60231   0.46986   0.00000  Uiso   1.00
Co294  Co    0.60265   0.39668   0.52904   0.00000  Uiso   1.00
Co295  Co    0.47911   0.47823   0.35396   0.00000  Uiso   1.00
Co296  Co    0.47911   0.52075   0.64495   0.00000  Uiso   1.00
Co297  Co    0.52029   0.47823   0.35396   0.00000  Uiso   1.00
Co298  Co    0.52029   0.47958   0.64513   0.00000  Uiso   1.00
Co299  Co    0.39676   0.43732   0.41239   0.00000  Uiso   1.00
Co300  Co    0.64383   0.47904   0.52867   0.00000  Uiso   1.00
Co301  Co    0.47911   0.35550   0.52924   0.00000  Uiso   1.00
Co302  Co    0.41735   0.62303   0.49888   0.00000  Uiso   1.00
Co303  Co    0.62324   0.41714   0.49983   0.00000  Uiso   1.00
Co304  Co    0.39676   0.56166   0.58652   0.00000  Uiso   1.00
Co305  Co    0.56147   0.60203   0.41163   0.00000  Uiso   1.00
Co306  Co    0.64383   0.51995   0.47024   0.00000  Uiso   1.00
Co307  Co    0.41735   0.45778   0.38317   0.00000  Uiso   1.00
Co308  Co    0.54088   0.58131   0.38261   0.00000  Uiso   1.00
Co309  Co    0.60265   0.43813   0.58709   0.00000  Uiso   1.00
Co310  Co    0.35558   0.47904   0.52867   0.00000  Uiso   1.00
Co311  Co    0.58206   0.54013   0.38279   0.00000  Uiso   1.00
Co312  Co    0.58206   0.54120   0.61573   0.00000  Uiso   1.00
Co313  Co    0.39676   0.39642   0.47081   0.00000  Uiso   1.00
Co314  Co    0.41734   0.54120   0.61573   0.00000  Uiso   1.00
Co315  Co    0.39676   0.39668   0.52905   0.00000  Uiso   1.00
Co316  Co    0.58206   0.37596   0.50003   0.00000  Uiso   1.00
Co317  Co    0.41734   0.37596   0.50003   0.00000  Uiso   1.00
Co318  Co    0.47911   0.47958   0.64513   0.00000  Uiso   1.00
Co319  Co    0.60265   0.56166   0.58652   0.00000  Uiso   1.00
Co320  Co    0.60265   0.39642   0.47081   0.00000  Uiso   1.00
Co321  Co    0.54088   0.41768   0.61631   0.00000  Uiso   1.00
Co322  Co    0.43794   0.51941   0.35378   0.00000  Uiso   1.00
Co323  Co    0.37617   0.41740   0.55807   0.00000  Uiso   1.00
Co324  Co    0.43794   0.47958   0.64513   0.00000  Uiso   1.00
Co325  Co    0.41735   0.62329   0.55712   0.00000  Uiso   1.00
Co326  Co    0.41735   0.37623   0.55825   0.00000  Uiso   1.00
Co327  Co    0.62323   0.41740   0.55807   0.00000  Uiso   1.00
Co328  Co    0.47912   0.43840   0.64532   0.00000  Uiso   1.00
Co329  Co    0.43794   0.64375   0.52791   0.00000  Uiso   1.00
Co330  Co    0.41735   0.62275   0.44066   0.00000  Uiso   1.00
Co331  Co    0.64382   0.56139   0.52829   0.00000  Uiso   1.00
Co332  Co    0.35559   0.43759   0.47062   0.00000  Uiso   1.00
Co333  Co    0.64382   0.43786   0.52885   0.00000  Uiso   1.00
Co334  Co    0.47911   0.43705   0.35416   0.00000  Uiso   1.00
Co335  Co    0.56147   0.35524   0.47100   0.00000  Uiso   1.00
Co336  Co    0.35558   0.56139   0.52829   0.00000  Uiso   1.00
Co337  Co    0.58206   0.62329   0.55712   0.00000  Uiso   1.00
Co338  Co    0.56147   0.64375   0.52791   0.00000  Uiso   1.00
Co339  Co    0.52029   0.43705   0.35416   0.00000  Uiso   1.00
Co340  Co    0.56147   0.47958   0.64513   0.00000  Uiso   1.00
Co341  Co    0.58206   0.37570   0.44178   0.00000  Uiso   1.00
Co342  Co    0.41735   0.37569   0.44179   0.00000  Uiso   1.00
Co343  Co    0.52029   0.56193   0.64475   0.00000  Uiso   1.00
Co344  Co    0.43793   0.64348   0.46967   0.00000  Uiso   1.00
Co345  Co    0.64382   0.43759   0.47062   0.00000  Uiso   1.00
Co346  Co    0.47912   0.56059   0.35358   0.00000  Uiso   1.00
Co347  Co    0.47912   0.56193   0.64475   0.00000  Uiso   1.00
Co348  Co    0.43793   0.47823   0.35396   0.00000  Uiso   1.00
Co349  Co    0.43794   0.35524   0.47100   0.00000  Uiso   1.00
Co350  Co    0.56147   0.64348   0.46967   0.00000  Uiso   1.00
Co351  Co    0.37617   0.58212   0.55730   0.00000  Uiso   1.00
Co352  Co    0.58206   0.37623   0.55825   0.00000  Uiso   1.00
Co353  Co    0.56147   0.47823   0.35396   0.00000  Uiso   1.00
Co354  Co    0.64383   0.56113   0.47005   0.00000  Uiso   1.00
Co355  Co    0.62324   0.58211   0.55731   0.00000  Uiso   1.00
Co356  Co    0.37617   0.41687   0.44160   0.00000  Uiso   1.00
Co357  Co    0.52029   0.56059   0.35358   0.00000  Uiso   1.00
Co358  Co    0.62324   0.41686   0.44160   0.00000  Uiso   1.00
Co359  Co    0.58206   0.62276   0.44065   0.00000  Uiso   1.00
Co360  Co    0.56147   0.51941   0.35378   0.00000  Uiso   1.00
Co361  Co    0.35558   0.43786   0.52885   0.00000  Uiso   1.00
Co362  Co    0.56147   0.52075   0.64495   0.00000  Uiso   1.00
Co363  Co    0.62324   0.58158   0.44084   0.00000  Uiso   1.00
Co364  Co    0.43793   0.52075   0.64495   0.00000  Uiso   1.00
Co365  Co    0.56147   0.35550   0.52924   0.00000  Uiso   1.00
Co366  Co    0.35558   0.56113   0.47005   0.00000  Uiso   1.00
Co367  Co    0.43793   0.35550   0.52924   0.00000  Uiso   1.00
Co368  Co    0.52029   0.43840   0.64533   0.00000  Uiso   1.00
Co369  Co    0.37617   0.58159   0.44084   0.00000  Uiso   1.00
Co370  Co    0.41735   0.41768   0.61630   0.00000  Uiso   1.00
Co371  Co    0.49971   0.66420   0.49869   0.00000  Uiso   1.00
Co372  Co    0.41735   0.58238   0.61554   0.00000  Uiso   1.00
Co373  Co    0.58206   0.41660   0.38337   0.00000  Uiso   1.00
Co374  Co    0.41735   0.41660   0.38336   0.00000  Uiso   1.00
Co375  Co    0.41735   0.58131   0.38261   0.00000  Uiso   1.00
Co376  Co    0.58206   0.58238   0.61554   0.00000  Uiso   1.00
Co377  Co    0.49970   0.33478   0.50021   0.00000  Uiso   1.00
Co378  Co    0.33499   0.49950   0.49945   0.00000  Uiso   1.00
Co379  Co    0.66442   0.49949   0.49946   0.00000  Uiso   1.00
Co380  Co    0.58206   0.58131   0.38261   0.00000  Uiso   1.00
Co381  Co    0.58206   0.41768   0.61631   0.00000  Uiso   1.00
Co382  Co    0.35559   0.47931   0.58690   0.00000  Uiso   1.00
Co383  Co    0.49970   0.37650   0.61649   0.00000  Uiso   1.00
Co384  Co    0.45853   0.66420   0.49869   0.00000  Uiso   1.00
Co385  Co    0.37617   0.50003   0.61592   0.00000  Uiso   1.00
Co386  Co    0.66441   0.45831   0.49964   0.00000  Uiso   1.00
Co387  Co    0.62323   0.50003   0.61592   0.00000  Uiso   1.00
Co388  Co    0.39676   0.60284   0.58633   0.00000  Uiso   1.00
Co389  Co    0.39676   0.39695   0.58728   0.00000  Uiso   1.00
Co390  Co    0.60264   0.39695   0.58728   0.00000  Uiso   1.00
Co391  Co    0.43794   0.43840   0.64532   0.00000  Uiso   1.00
Co392  Co    0.35559   0.51968   0.41200   0.00000  Uiso   1.00
Co393  Co    0.49970   0.62356   0.61535   0.00000  Uiso   1.00
Co394  Co    0.47912   0.35578   0.58746   0.00000  Uiso   1.00
Co395  Co    0.64382   0.52049   0.58670   0.00000  Uiso   1.00
Co396  Co    0.47912   0.64402   0.58613   0.00000  Uiso   1.00
Co397  Co    0.60264   0.39614   0.41258   0.00000  Uiso   1.00
Co398  Co    0.43794   0.43705   0.35416   0.00000  Uiso   1.00
Co399  Co    0.47912   0.35497   0.41277   0.00000  Uiso   1.00
Co400  Co    0.52029   0.64402   0.58613   0.00000  Uiso   1.00
Co401  Co    0.43794   0.56059   0.35358   0.00000  Uiso   1.00
Co402  Co    0.60265   0.60284   0.58633   0.00000  Uiso   1.00
Co403  Co    0.54088   0.66420   0.49869   0.00000  Uiso   1.00
Co404  Co    0.39676   0.39614   0.41258   0.00000  Uiso   1.00
Co405  Co    0.54088   0.33478   0.50021   0.00000  Uiso   1.00
Co406  Co    0.49971   0.37542   0.38356   0.00000  Uiso   1.00
Co407  Co    0.52030   0.35497   0.41277   0.00000  Uiso   1.00
Co408  Co    0.56147   0.56193   0.64475   0.00000  Uiso   1.00
Co409  Co    0.56147   0.43706   0.35415   0.00000  Uiso   1.00
Co410  Co    0.64383   0.47931   0.58690   0.00000  Uiso   1.00
Co411  Co    0.49971   0.62249   0.38242   0.00000  Uiso   1.00
Co412  Co    0.47912   0.64321   0.41144   0.00000  Uiso   1.00
Co413  Co    0.66441   0.54067   0.49927   0.00000  Uiso   1.00
Co414  Co    0.33499   0.45831   0.49964   0.00000  Uiso   1.00
Co415  Co    0.43794   0.56192   0.64476   0.00000  Uiso   1.00
Co416  Co    0.64382   0.51968   0.41200   0.00000  Uiso   1.00
Co417  Co    0.45852   0.33478   0.50021   0.00000  Uiso   1.00
Co418  Co    0.52029   0.64321   0.41144   0.00000  Uiso   1.00
Co419  Co    0.64383   0.47850   0.41220   0.00000  Uiso   1.00
Co420  Co    0.56147   0.43840   0.64533   0.00000  Uiso   1.00
Co421  Co    0.35558   0.52048   0.58671   0.00000  Uiso   1.00
Co422  Co    0.39676   0.60203   0.41163   0.00000  Uiso   1.00
Co423  Co    0.62324   0.49895   0.38299   0.00000  Uiso   1.00
Co424  Co    0.56147   0.56059   0.35358   0.00000  Uiso   1.00
Co425  Co    0.33499   0.54067   0.49927   0.00000  Uiso   1.00
Co426  Co    0.35558   0.47850   0.41220   0.00000  Uiso   1.00
Co427  Co    0.60265   0.60203   0.41163   0.00000  Uiso   1.00
Co428  Co    0.52029   0.35577   0.58747   0.00000  Uiso   1.00
Co429  Co    0.37617   0.49896   0.38298   0.00000  Uiso   1.00
Co430  Co    0.37618   0.45886   0.61611   0.00000  Uiso   1.00
Co431  Co    0.37617   0.54013   0.38280   0.00000  Uiso   1.00
Co432  Co    0.49970   0.66447   0.55693   0.00000  Uiso   1.00
Co433  Co    0.45853   0.37650   0.61649   0.00000  Uiso   1.00
Co434  Co    0.45853   0.62249   0.38242   0.00000  Uiso   1.00
Co435  Co    0.33500   0.49922   0.44122   0.00000  Uiso   1.00
Co436  Co    0.54088   0.62356   0.61534   0.00000  Uiso   1.00
Co437  Co    0.45853   0.62356   0.61535   0.00000  Uiso   1.00
Co438  Co    0.45853   0.37542   0.38356   0.00000  Uiso   1.00
Co439  Co    0.54088   0.37542   0.38356   0.00000  Uiso   1.00
Co440  Co    0.62323   0.62303   0.49888   0.00000  Uiso   1.00
Co441  Co    0.66441   0.49976   0.55769   0.00000  Uiso   1.00
Co442  Co    0.49971   0.33452   0.44198   0.00000  Uiso   1.00
Co443  Co    0.62323   0.45778   0.38317   0.00000  Uiso   1.00
Co444  Co    0.66441   0.49922   0.44121   0.00000  Uiso   1.00
Co445  Co    0.33500   0.49976   0.55770   0.00000  Uiso   1.00
Co446  Co    0.62324   0.45886   0.61611   0.00000  Uiso   1.00
Co447  Co    0.37617   0.62303   0.49888   0.00000  Uiso   1.00
Co448  Co    0.49970   0.50030   0.67416   0.00000  Uiso   1.00
Co449  Co    0.37617   0.45778   0.38317   0.00000  Uiso   1.00
Co450  Co    0.49970   0.33505   0.55845   0.00000  Uiso   1.00
Co451  Co    0.54088   0.37650   0.61649   0.00000  Uiso   1.00
Co452  Co    0.49970   0.66393   0.44046   0.00000  Uiso   1.00
Co453  Co    0.49970   0.49869   0.32475   0.00000  Uiso   1.00
Co454  Co    0.54089   0.62249   0.38242   0.00000  Uiso   1.00
Co455  Co    0.62324   0.54121   0.61573   0.00000  Uiso   1.00
Co456  Co    0.62324   0.37596   0.50002   0.00000  Uiso   1.00
Co457  Co    0.62324   0.54013   0.38279   0.00000  Uiso   1.00
Co458  Co    0.37617   0.54120   0.61573   0.00000  Uiso   1.00
Co459  Co    0.37617   0.37596   0.50003   0.00000  Uiso   1.00
Co460  Co    0.47911   0.39723   0.64551   0.00000  Uiso   1.00
Co461  Co    0.35559   0.39668   0.52904   0.00000  Uiso   1.00
Co462  Co    0.45852   0.50030   0.67415   0.00000  Uiso   1.00
Co463  Co    0.39677   0.64375   0.52791   0.00000  Uiso   1.00
Co464  Co    0.49970   0.45912   0.67434   0.00000  Uiso   1.00
Co465  Co    0.45852   0.33506   0.55844   0.00000  Uiso   1.00
Co466  Co    0.66441   0.54094   0.55750   0.00000  Uiso   1.00
Co467  Co    0.56147   0.64401   0.58614   0.00000  Uiso   1.00
Co468  Co    0.33499   0.45859   0.55788   0.00000  Uiso   1.00
Co469  Co    0.47912   0.39588   0.35435   0.00000  Uiso   1.00
Co470  Co    0.54088   0.66447   0.55693   0.00000  Uiso   1.00
Co471  Co    0.39676   0.52076   0.64494   0.00000  Uiso   1.00
Co472  Co    0.39676   0.47958   0.64513   0.00000  Uiso   1.00
Co473  Co    0.52029   0.60310   0.64456   0.00000  Uiso   1.00
Co474  Co    0.43794   0.64401   0.58614   0.00000  Uiso   1.00
Co475  Co    0.60264   0.47958   0.64513   0.00000  Uiso   1.00
Co476  Co    0.35558   0.43814   0.58709   0.00000  Uiso   1.00
Co477  Co    0.35559   0.60231   0.46986   0.00000  Uiso   1.00
Co478  Co    0.39676   0.35551   0.52923   0.00000  Uiso   1.00
Co479  Co    0.43794   0.35497   0.41277   0.00000  Uiso   1.00
Co480  Co    0.52029   0.39588   0.35435   0.00000  Uiso   1.00
Co481  Co    0.47911   0.60310   0.64456   0.00000  Uiso   1.00
Co482  Co    0.43794   0.35578   0.58746   0.00000  Uiso   1.00
Co483  Co    0.60265   0.35524   0.47100   0.00000  Uiso   1.00
Co484  Co    0.45853   0.66447   0.55692   0.00000  Uiso   1.00
Co485  Co    0.52030   0.39722   0.64552   0.00000  Uiso   1.00
Co486  Co    0.43794   0.64321   0.41144   0.00000  Uiso   1.00
Co487  Co    0.45853   0.33452   0.44198   0.00000  Uiso   1.00
Co488  Co    0.54088   0.33452   0.44198   0.00000  Uiso   1.00
Co489  Co    0.33499   0.54041   0.44103   0.00000  Uiso   1.00
Co490  Co    0.49970   0.45751   0.32494   0.00000  Uiso   1.00
Co491  Co    0.60265   0.64375   0.52791   0.00000  Uiso   1.00
Co492  Co    0.39676   0.64348   0.46967   0.00000  Uiso   1.00
Co493  Co    0.56147   0.35497   0.41277   0.00000  Uiso   1.00
Co494  Co    0.35558   0.56086   0.41182   0.00000  Uiso   1.00
Co495  Co    0.39676   0.47823   0.35396   0.00000  Uiso   1.00
Co496  Co    0.33499   0.54094   0.55750   0.00000  Uiso   1.00
Co497  Co    0.64383   0.39668   0.52904   0.00000  Uiso   1.00
Co498  Co    0.49971   0.53986   0.32457   0.00000  Uiso   1.00
Co499  Co    0.35558   0.60257   0.52809   0.00000  Uiso   1.00
Co500  Co    0.45852   0.66393   0.44046   0.00000  Uiso   1.00
Co501  Co    0.66441   0.45804   0.44141   0.00000  Uiso   1.00
Co502  Co    0.64382   0.56086   0.41182   0.00000  Uiso   1.00
Co503  Co    0.60264   0.64348   0.46967   0.00000  Uiso   1.00
Co504  Co    0.35558   0.43732   0.41239   0.00000  Uiso   1.00
Co505  Co    0.64382   0.60231   0.46986   0.00000  Uiso   1.00
Co506  Co    0.45852   0.49869   0.32475   0.00000  Uiso   1.00
Co507  Co    0.39676   0.35524   0.47100   0.00000  Uiso   1.00
Co508  Co    0.49970   0.54147   0.67397   0.00000  Uiso   1.00
Co509  Co    0.60264   0.47823   0.35396   0.00000  Uiso   1.00
Co510  Co    0.64383   0.56166   0.58652   0.00000  Uiso   1.00
Co511  Co    0.64383   0.43813   0.58709   0.00000  Uiso   1.00
Co512  Co    0.64383   0.60257   0.52809   0.00000  Uiso   1.00
Co513  Co    0.47911   0.60177   0.35340   0.00000  Uiso   1.00
Co514  Co    0.64383   0.39641   0.47082   0.00000  Uiso   1.00
Co515  Co    0.54088   0.66393   0.44046   0.00000  Uiso   1.00
Co516  Co    0.60265   0.52075   0.64495   0.00000  Uiso   1.00
Co517  Co    0.35558   0.56166   0.58652   0.00000  Uiso   1.00
Co518  Co    0.56147   0.35577   0.58747   0.00000  Uiso   1.00
Co519  Co    0.66442   0.45859   0.55788   0.00000  Uiso   1.00
Co520  Co    0.64383   0.43732   0.41239   0.00000  Uiso   1.00
Co521  Co    0.54088   0.49869   0.32475   0.00000  Uiso   1.00
Co522  Co    0.60265   0.35550   0.52924   0.00000  Uiso   1.00
Co523  Co    0.39676   0.51941   0.35378   0.00000  Uiso   1.00
Co524  Co    0.35558   0.39641   0.47082   0.00000  Uiso   1.00
Co525  Co    0.56147   0.64321   0.41144   0.00000  Uiso   1.00
Co526  Co    0.52029   0.60177   0.35340   0.00000  Uiso   1.00
Co527  Co    0.66442   0.54041   0.44103   0.00000  Uiso   1.00
Co528  Co    0.54088   0.50030   0.67416   0.00000  Uiso   1.00
Co529  Co    0.33499   0.45804   0.44141   0.00000  Uiso   1.00
Co530  Co    0.60265   0.51941   0.35378   0.00000  Uiso   1.00
Co531  Co    0.54088   0.33505   0.55845   0.00000  Uiso   1.00
Co532  Co    0.41735   0.66420   0.49869   0.00000  Uiso   1.00
Co533  Co    0.37618   0.62329   0.55712   0.00000  Uiso   1.00
Co534  Co    0.37617   0.62275   0.44066   0.00000  Uiso   1.00
Co535  Co    0.37618   0.37623   0.55825   0.00000  Uiso   1.00
Co536  Co    0.45853   0.45912   0.67434   0.00000  Uiso   1.00
Co537  Co    0.62323   0.37569   0.44179   0.00000  Uiso   1.00
Co538  Co    0.33500   0.58185   0.49908   0.00000  Uiso   1.00
Co539  Co    0.45853   0.53986   0.32457   0.00000  Uiso   1.00
Co540  Co    0.58206   0.33478   0.50021   0.00000  Uiso   1.00
Co541  Co    0.45853   0.45751   0.32495   0.00000  Uiso   1.00
Co542  Co    0.62324   0.62329   0.55712   0.00000  Uiso   1.00
Co543  Co    0.66441   0.58185   0.49907   0.00000  Uiso   1.00
Co544  Co    0.66441   0.41714   0.49983   0.00000  Uiso   1.00
Co545  Co    0.37617   0.37569   0.44179   0.00000  Uiso   1.00
Co546  Co    0.33500   0.41713   0.49984   0.00000  Uiso   1.00
Co547  Co    0.62324   0.37623   0.55825   0.00000  Uiso   1.00
Co548  Co    0.58206   0.66420   0.49869   0.00000  Uiso   1.00
Co549  Co    0.54088   0.54148   0.67396   0.00000  Uiso   1.00
Co550  Co    0.54088   0.45751   0.32494   0.00000  Uiso   1.00
Co551  Co    0.54088   0.45912   0.67434   0.00000  Uiso   1.00
Co552  Co    0.45853   0.54147   0.67397   0.00000  Uiso   1.00
Co553  Co    0.41735   0.33478   0.50021   0.00000  Uiso   1.00
Co554  Co    0.54089   0.53986   0.32457   0.00000  Uiso   1.00
Co555  Co    0.62324   0.62276   0.44065   0.00000  Uiso   1.00
Co556  Co    0.62323   0.58131   0.38261   0.00000  Uiso   1.00
Co557  Co    0.58206   0.62249   0.38242   0.00000  Uiso   1.00
Co558  Co    0.56146   0.60177   0.35340   0.00000  Uiso   1.00
Co559  Co    0.60264   0.56058   0.35359   0.00000  Uiso   1.00
Co560  Co    0.41735   0.37542   0.38356   0.00000  Uiso   1.00
Co561  Co    0.43793   0.39723   0.64551   0.00000  Uiso   1.00
Co562  Co    0.47911   0.68492   0.52772   0.00000  Uiso   1.00
Co563  Co    0.56147   0.60310   0.64456   0.00000  Uiso   1.00
Co564  Co    0.39676   0.56058   0.35359   0.00000  Uiso   1.00
Co565  Co    0.47912   0.68465   0.46948   0.00000  Uiso   1.00
Co566  Co    0.52029   0.68492   0.52772   0.00000  Uiso   1.00
Co567  Co    0.43794   0.39588   0.35435   0.00000  Uiso   1.00
Co568  Co    0.68500   0.47877   0.47042   0.00000  Uiso   1.00
Co569  Co    0.58206   0.62356   0.61534   0.00000  Uiso   1.00
Co570  Co    0.41735   0.62356   0.61535   0.00000  Uiso   1.00
Co571  Co    0.39676   0.43840   0.64532   0.00000  Uiso   1.00
Co572  Co    0.37617   0.41660   0.38337   0.00000  Uiso   1.00
Co573  Co    0.37617   0.41768   0.61630   0.00000  Uiso   1.00
Co574  Co    0.41735   0.37650   0.61649   0.00000  Uiso   1.00
Co575  Co    0.31441   0.47876   0.47043   0.00000  Uiso   1.00
Co576  Co    0.58206   0.37542   0.38356   0.00000  Uiso   1.00
Co577  Co    0.56147   0.39588   0.35435   0.00000  Uiso   1.00
Co578  Co    0.43794   0.60310   0.64456   0.00000  Uiso   1.00
Co579  Co    0.37617   0.58131   0.38261   0.00000  Uiso   1.00
Co580  Co    0.37617   0.58238   0.61555   0.00000  Uiso   1.00
Co581  Co    0.39676   0.43706   0.35415   0.00000  Uiso   1.00
Co582  Co    0.52030   0.68465   0.46948   0.00000  Uiso   1.00
Co583  Co    0.62323   0.41660   0.38336   0.00000  Uiso   1.00
Co584  Co    0.58205   0.37650   0.61649   0.00000  Uiso   1.00
Co585  Co    0.68500   0.52022   0.52848   0.00000  Uiso   1.00
Co586  Co    0.60265   0.56193   0.64475   0.00000  Uiso   1.00
Co587  Co    0.52029   0.31406   0.47119   0.00000  Uiso   1.00
Co588  Co    0.31440   0.51995   0.47024   0.00000  Uiso   1.00
Co589  Co    0.62324   0.58238   0.61554   0.00000  Uiso   1.00
Co590  Co    0.47912   0.31406   0.47119   0.00000  Uiso   1.00
Co591  Co    0.60265   0.43706   0.35415   0.00000  Uiso   1.00
Co592  Co    0.60265   0.43840   0.64532   0.00000  Uiso   1.00
Co593  Co    0.52029   0.31433   0.52943   0.00000  Uiso   1.00
Co594  Co    0.43794   0.60177   0.35340   0.00000  Uiso   1.00
Co595  Co    0.39676   0.56192   0.64476   0.00000  Uiso   1.00
Co596  Co    0.68500   0.47904   0.52867   0.00000  Uiso   1.00
Co597  Co    0.62324   0.41768   0.61631   0.00000  Uiso   1.00
Co598  Co    0.47911   0.31433   0.52943   0.00000  Uiso   1.00
Co599  Co    0.68501   0.51995   0.47024   0.00000  Uiso   1.00
Co600  Co    0.31440   0.47904   0.52867   0.00000  Uiso   1.00
Co601  Co    0.41735   0.62249   0.38241   0.00000  Uiso   1.00
Co602  Co    0.56147   0.39722   0.64552   0.00000  Uiso   1.00
Co603  Co    0.31440   0.52022   0.52848   0.00000  Uiso   1.00
Co604  Co    0.66441   0.41741   0.55806   0.00000  Uiso   1.00
Co605  Co    0.33500   0.41740   0.55807   0.00000  Uiso   1.00
Co606  Co    0.58206   0.66447   0.55693   0.00000  Uiso   1.00
Co607  Co    0.41735   0.50030   0.67415   0.00000  Uiso   1.00
Co608  Co    0.41735   0.66447   0.55692   0.00000  Uiso   1.00
Co609  Co    0.49971   0.41633   0.32514   0.00000  Uiso   1.00
Co610  Co    0.41735   0.33506   0.55844   0.00000  Uiso   1.00
Co611  Co    0.49971   0.41795   0.67453   0.00000  Uiso   1.00
Co612  Co    0.49970   0.58265   0.67377   0.00000  Uiso   1.00
Co613  Co    0.41735   0.33452   0.44198   0.00000  Uiso   1.00
Co614  Co    0.58206   0.33452   0.44198   0.00000  Uiso   1.00
Co615  Co    0.41735   0.66393   0.44046   0.00000  Uiso   1.00
Co616  Co    0.41735   0.49869   0.32475   0.00000  Uiso   1.00
Co617  Co    0.33499   0.58212   0.55730   0.00000  Uiso   1.00
Co618  Co    0.33499   0.41687   0.44160   0.00000  Uiso   1.00
Co619  Co    0.66442   0.58211   0.55731   0.00000  Uiso   1.00
Co620  Co    0.66442   0.41686   0.44160   0.00000  Uiso   1.00
Co621  Co    0.49971   0.58104   0.32437   0.00000  Uiso   1.00
Co622  Co    0.58206   0.66393   0.44046   0.00000  Uiso   1.00
Co623  Co    0.58206   0.50030   0.67416   0.00000  Uiso   1.00
Co624  Co    0.33499   0.58159   0.44084   0.00000  Uiso   1.00
Co625  Co    0.58206   0.49869   0.32475   0.00000  Uiso   1.00
Co626  Co    0.66442   0.58158   0.44084   0.00000  Uiso   1.00
Co627  Co    0.58206   0.33505   0.55845   0.00000  Uiso   1.00
Co628  Co    0.54088   0.58103   0.32438   0.00000  Uiso   1.00
Co629  Co    0.43794   0.68465   0.46948   0.00000  Uiso   1.00
Co630  Co    0.60264   0.64321   0.41145   0.00000  Uiso   1.00
Co631  Co    0.68500   0.43786   0.52885   0.00000  Uiso   1.00
Co632  Co    0.31441   0.43786   0.52885   0.00000  Uiso   1.00
Co633  Co    0.58206   0.53986   0.32457   0.00000  Uiso   1.00
Co634  Co    0.41735   0.54148   0.67396   0.00000  Uiso   1.00
Co635  Co    0.64382   0.60203   0.41163   0.00000  Uiso   1.00
Co636  Co    0.64382   0.39695   0.58728   0.00000  Uiso   1.00
Co637  Co    0.45853   0.41633   0.32514   0.00000  Uiso   1.00
Co638  Co    0.60264   0.64401   0.58614   0.00000  Uiso   1.00
Co639  Co    0.43794   0.68492   0.52772   0.00000  Uiso   1.00
Co640  Co    0.43794   0.31433   0.52943   0.00000  Uiso   1.00
Co641  Co    0.35559   0.60284   0.58633   0.00000  Uiso   1.00
Co642  Co    0.54088   0.41795   0.67453   0.00000  Uiso   1.00
Co643  Co    0.39676   0.64321   0.41145   0.00000  Uiso   1.00
Co644  Co    0.39676   0.35497   0.41277   0.00000  Uiso   1.00
Co645  Co    0.39676   0.64401   0.58614   0.00000  Uiso   1.00
Co646  Co    0.54088   0.58265   0.67377   0.00000  Uiso   1.00
Co647  Co    0.68500   0.56140   0.52828   0.00000  Uiso   1.00
Co648  Co    0.41735   0.45751   0.32495   0.00000  Uiso   1.00
Co649  Co    0.64382   0.39614   0.41258   0.00000  Uiso   1.00
Co650  Co    0.56147   0.68493   0.52771   0.00000  Uiso   1.00
Co651  Co    0.35558   0.39695   0.58728   0.00000  Uiso   1.00
Co652  Co    0.41735   0.45912   0.67434   0.00000  Uiso   1.00
Co653  Co    0.31441   0.56139   0.52829   0.00000  Uiso   1.00
Co654  Co    0.35558   0.39614   0.41258   0.00000  Uiso   1.00
Co655  Co    0.39676   0.35578   0.58746   0.00000  Uiso   1.00
Co656  Co    0.64382   0.60284   0.58633   0.00000  Uiso   1.00
Co657  Co    0.60265   0.35497   0.41277   0.00000  Uiso   1.00
Co658  Co    0.54088   0.41633   0.32514   0.00000  Uiso   1.00
Co659  Co    0.45853   0.41795   0.67453   0.00000  Uiso   1.00
Co660  Co    0.56147   0.31433   0.52943   0.00000  Uiso   1.00
Co661  Co    0.58205   0.45912   0.67434   0.00000  Uiso   1.00
Co662  Co    0.56147   0.31406   0.47119   0.00000  Uiso   1.00
Co663  Co    0.58206   0.54148   0.67396   0.00000  Uiso   1.00
Co664  Co    0.45852   0.58265   0.67377   0.00000  Uiso   1.00
Co665  Co    0.68500   0.43759   0.47062   0.00000  Uiso   1.00
Co666  Co    0.43794   0.31406   0.47120   0.00000  Uiso   1.00
Co667  Co    0.45853   0.58104   0.32437   0.00000  Uiso   1.00
Co668  Co    0.56147   0.68465   0.46948   0.00000  Uiso   1.00
Co669  Co    0.60265   0.35578   0.58746   0.00000  Uiso   1.00
Co670  Co    0.58206   0.45751   0.32494   0.00000  Uiso   1.00
Co671  Co    0.68500   0.56113   0.47005   0.00000  Uiso   1.00
Co672  Co    0.35558   0.60203   0.41163   0.00000  Uiso   1.00
Co673  Co    0.31440   0.56113   0.47005   0.00000  Uiso   1.00
Co674  Co    0.41735   0.53987   0.32456   0.00000  Uiso   1.00
Co675  Co    0.31440   0.43759   0.47062   0.00000  Uiso   1.00
Co676  Co    0.66441   0.50004   0.61591   0.00000  Uiso   1.00
Co677  Co    0.49970   0.66474   0.61516   0.00000  Uiso   1.00
Co678  Co    0.33500   0.50003   0.61592   0.00000  Uiso   1.00
Co679  Co    0.49970   0.33425   0.38375   0.00000  Uiso   1.00
Co680  Co    0.49971   0.33532   0.61667   0.00000  Uiso   1.00
Co681  Co    0.49971   0.66367   0.38223   0.00000  Uiso   1.00
Co682  Co    0.33499   0.49896   0.38298   0.00000  Uiso   1.00
Co683  Co    0.66442   0.49895   0.38299   0.00000  Uiso   1.00
Co684  Co    0.52029   0.64294   0.35321   0.00000  Uiso   1.00
Co685  Co    0.31441   0.47931   0.58690   0.00000  Uiso   1.00
Co686  Co    0.66441   0.54013   0.38280   0.00000  Uiso   1.00
Co687  Co    0.54088   0.66366   0.38223   0.00000  Uiso   1.00
Co688  Co    0.68500   0.52048   0.58671   0.00000  Uiso   1.00
Co689  Co    0.47911   0.47985   0.70336   0.00000  Uiso   1.00
Co690  Co    0.31441   0.52048   0.58671   0.00000  Uiso   1.00
Co691  Co    0.52029   0.64428   0.64437   0.00000  Uiso   1.00
Co692  Co    0.60264   0.60177   0.35340   0.00000  Uiso   1.00
Co693  Co    0.52029   0.68519   0.58594   0.00000  Uiso   1.00
Co694  Co    0.39677   0.39588   0.35435   0.00000  Uiso   1.00
Co695  Co    0.47911   0.31460   0.58765   0.00000  Uiso   1.00
Co696  Co    0.52029   0.35604   0.64570   0.00000  Uiso   1.00
Co697  Co    0.64382   0.47958   0.64513   0.00000  Uiso   1.00
Co698  Co    0.54088   0.66474   0.61516   0.00000  Uiso   1.00
Co699  Co    0.31441   0.51967   0.41201   0.00000  Uiso   1.00
Co700  Co    0.47911   0.64428   0.64437   0.00000  Uiso   1.00
Co701  Co    0.64382   0.51941   0.35378   0.00000  Uiso   1.00
Co702  Co    0.33500   0.45886   0.61611   0.00000  Uiso   1.00
Co703  Co    0.37617   0.33478   0.50021   0.00000  Uiso   1.00
Co704  Co    0.60265   0.60311   0.64455   0.00000  Uiso   1.00
Co705  Co    0.47912   0.52102   0.70317   0.00000  Uiso   1.00
Co706  Co    0.52029   0.31380   0.41296   0.00000  Uiso   1.00
Co707  Co    0.52029   0.35470   0.35453   0.00000  Uiso   1.00
Co708  Co    0.45852   0.66474   0.61516   0.00000  Uiso   1.00
Co709  Co    0.33500   0.54013   0.38279   0.00000  Uiso   1.00
Co710  Co    0.62323   0.33478   0.50021   0.00000  Uiso   1.00
Co711  Co    0.54088   0.33425   0.38375   0.00000  Uiso   1.00
Co712  Co    0.47911   0.31380   0.41296   0.00000  Uiso   1.00
Co713  Co    0.33499   0.54121   0.61573   0.00000  Uiso   1.00
Co714  Co    0.47911   0.68519   0.58594   0.00000  Uiso   1.00
Co715  Co    0.54088   0.33532   0.61667   0.00000  Uiso   1.00
Co716  Co    0.47911   0.35604   0.64570   0.00000  Uiso   1.00
Co717  Co    0.64382   0.35524   0.47100   0.00000  Uiso   1.00
Co718  Co    0.49970   0.70538   0.49850   0.00000  Uiso   1.00
Co719  Co    0.45852   0.33425   0.38375   0.00000  Uiso   1.00
Co720  Co    0.33499   0.37596   0.50002   0.00000  Uiso   1.00
Co721  Co    0.35558   0.52076   0.64494   0.00000  Uiso   1.00
Co722  Co    0.35558   0.47958   0.64513   0.00000  Uiso   1.00
Co723  Co    0.47911   0.35470   0.35453   0.00000  Uiso   1.00
Co724  Co    0.35558   0.35551   0.52923   0.00000  Uiso   1.00
Co725  Co    0.66441   0.45886   0.61611   0.00000  Uiso   1.00
Co726  Co    0.39676   0.39723   0.64551   0.00000  Uiso   1.00
Co727  Co    0.52030   0.47984   0.70337   0.00000  Uiso   1.00
Co728  Co    0.45853   0.33532   0.61667   0.00000  Uiso   1.00
Co729  Co    0.39676   0.60310   0.64456   0.00000  Uiso   1.00
Co730  Co    0.60265   0.39588   0.35435   0.00000  Uiso   1.00
Co731  Co    0.52030   0.31460   0.58766   0.00000  Uiso   1.00
Co732  Co    0.68500   0.47931   0.58690   0.00000  Uiso   1.00
Co733  Co    0.39676   0.60177   0.35340   0.00000  Uiso   1.00
Co734  Co    0.33499   0.62303   0.49888   0.00000  Uiso   1.00
Co735  Co    0.47912   0.47797   0.29573   0.00000  Uiso   1.00
Co736  Co    0.47912   0.64294   0.35321   0.00000  Uiso   1.00
Co737  Co    0.33499   0.45778   0.38317   0.00000  Uiso   1.00
Co738  Co    0.64383   0.64375   0.52791   0.00000  Uiso   1.00
Co739  Co    0.45853   0.66367   0.38223   0.00000  Uiso   1.00
Co740  Co    0.35558   0.64348   0.46967   0.00000  Uiso   1.00
Co741  Co    0.49970   0.29360   0.50041   0.00000  Uiso   1.00
Co742  Co    0.35558   0.47823   0.35396   0.00000  Uiso   1.00
Co743  Co    0.64382   0.64348   0.46967   0.00000  Uiso   1.00
Co744  Co    0.29381   0.49949   0.49946   0.00000  Uiso   1.00
Co745  Co    0.52029   0.47797   0.29573   0.00000  Uiso   1.00
Co746  Co    0.62324   0.66420   0.49869   0.00000  Uiso   1.00
Co747  Co    0.64382   0.47823   0.35396   0.00000  Uiso   1.00
Co748  Co    0.68500   0.51968   0.41200   0.00000  Uiso   1.00
Co749  Co    0.35558   0.35524   0.47100   0.00000  Uiso   1.00
Co750  Co    0.70559   0.49950   0.49945   0.00000  Uiso   1.00
Co751  Co    0.35558   0.64375   0.52791   0.00000  Uiso   1.00
Co752  Co    0.64383   0.52075   0.64495   0.00000  Uiso   1.00
Co753  Co    0.52029   0.52102   0.70318   0.00000  Uiso   1.00
Co754  Co    0.47911   0.68439   0.41125   0.00000  Uiso   1.00
Co755  Co    0.68500   0.47850   0.41220   0.00000  Uiso   1.00
Co756  Co    0.64383   0.35550   0.52924   0.00000  Uiso   1.00
Co757  Co    0.37617   0.66421   0.49869   0.00000  Uiso   1.00
Co758  Co    0.35558   0.51941   0.35378   0.00000  Uiso   1.00
Co759  Co    0.66442   0.54121   0.61573   0.00000  Uiso   1.00
Co760  Co    0.47911   0.51914   0.29554   0.00000  Uiso   1.00
Co761  Co    0.66442   0.37596   0.50002   0.00000  Uiso   1.00
Co762  Co    0.31440   0.47850   0.41220   0.00000  Uiso   1.00
Co763  Co    0.60265   0.39722   0.64552   0.00000  Uiso   1.00
Co764  Co    0.52029   0.68439   0.41125   0.00000  Uiso   1.00
Co765  Co    0.66442   0.62303   0.49888   0.00000  Uiso   1.00
Co766  Co    0.52029   0.51914   0.29554   0.00000  Uiso   1.00
Co767  Co    0.66442   0.45778   0.38317   0.00000  Uiso   1.00
Co768  Co    0.41735   0.41633   0.32514   0.00000  Uiso   1.00
Co769  Co    0.37618   0.37542   0.38356   0.00000  Uiso   1.00
Co770  Co    0.62323   0.62356   0.61535   0.00000  Uiso   1.00
Co771  Co    0.70559   0.45831   0.49964   0.00000  Uiso   1.00
Co772  Co    0.58206   0.58265   0.67377   0.00000  Uiso   1.00
Co773  Co    0.58206   0.58103   0.32438   0.00000  Uiso   1.00
Co774  Co    0.62324   0.62249   0.38242   0.00000  Uiso   1.00
Co775  Co    0.45853   0.70537   0.49851   0.00000  Uiso   1.00
Co776  Co    0.62323   0.37650   0.61649   0.00000  Uiso   1.00
Co777  Co    0.37617   0.62356   0.61535   0.00000  Uiso   1.00
Co778  Co    0.41735   0.58104   0.32437   0.00000  Uiso   1.00
Co779  Co    0.54088   0.70538   0.49850   0.00000  Uiso   1.00
Co780  Co    0.62324   0.37542   0.38356   0.00000  Uiso   1.00
Co781  Co    0.37617   0.37650   0.61649   0.00000  Uiso   1.00
Co782  Co    0.41735   0.41795   0.67453   0.00000  Uiso   1.00
Co783  Co    0.58206   0.41633   0.32514   0.00000  Uiso   1.00
Co784  Co    0.54088   0.29361   0.50040   0.00000  Uiso   1.00
Co785  Co    0.29382   0.45831   0.49964   0.00000  Uiso   1.00
Co786  Co    0.70559   0.54067   0.49927   0.00000  Uiso   1.00
Co787  Co    0.41735   0.58265   0.67377   0.00000  Uiso   1.00
Co788  Co    0.45853   0.29360   0.50041   0.00000  Uiso   1.00
Co789  Co    0.58206   0.41794   0.67454   0.00000  Uiso   1.00
Co790  Co    0.37617   0.62249   0.38242   0.00000  Uiso   1.00
Co791  Co    0.29381   0.54067   0.49927   0.00000  Uiso   1.00
Co792  Co    0.52029   0.56031   0.29535   0.00000  Uiso   1.00
Co793  Co    0.35559   0.56193   0.64475   0.00000  Uiso   1.00
Co794  Co    0.56147   0.35604   0.64570   0.00000  Uiso   1.00
Co795  Co    0.62323   0.66393   0.44046   0.00000  Uiso   1.00
Co796  Co    0.66441   0.62275   0.44066   0.00000  Uiso   1.00
Co797  Co    0.56147   0.64428   0.64437   0.00000  Uiso   1.00
Co798  Co    0.31441   0.39668   0.52904   0.00000  Uiso   1.00
Co799  Co    0.56146   0.68519   0.58594   0.00000  Uiso   1.00
Co800  Co    0.62323   0.49869   0.32475   0.00000  Uiso   1.00
Co801  Co    0.56147   0.64294   0.35321   0.00000  Uiso   1.00
Co802  Co    0.49970   0.62222   0.32419   0.00000  Uiso   1.00
Co803  Co    0.35558   0.56058   0.35359   0.00000  Uiso   1.00
Co804  Co    0.56146   0.68439   0.41125   0.00000  Uiso   1.00
Co805  Co    0.56147   0.31380   0.41296   0.00000  Uiso   1.00
Co806  Co    0.49970   0.29388   0.55864   0.00000  Uiso   1.00
Co807  Co    0.49970   0.62383   0.67358   0.00000  Uiso   1.00
Co808  Co    0.56146   0.35470   0.35453   0.00000  Uiso   1.00
Co809  Co    0.52029   0.43867   0.70355   0.00000  Uiso   1.00
Co810  Co    0.64382   0.56058   0.35359   0.00000  Uiso   1.00
Co811  Co    0.49970   0.70565   0.55673   0.00000  Uiso   1.00
Co812  Co    0.56146   0.51914   0.29554   0.00000  Uiso   1.00
Co813  Co    0.31441   0.60230   0.46987   0.00000  Uiso   1.00
Co814  Co    0.66441   0.37569   0.44179   0.00000  Uiso   1.00
Co815  Co    0.37617   0.66447   0.55693   0.00000  Uiso   1.00
Co816  Co    0.29382   0.49922   0.44122   0.00000  Uiso   1.00
Co817  Co    0.33500   0.37623   0.55825   0.00000  Uiso   1.00
Co818  Co    0.43794   0.52102   0.70317   0.00000  Uiso   1.00
Co819  Co    0.47912   0.43679   0.29593   0.00000  Uiso   1.00
Co820  Co    0.49970   0.29334   0.44217   0.00000  Uiso   1.00
Co821  Co    0.33500   0.62276   0.44065   0.00000  Uiso   1.00
Co822  Co    0.68500   0.56085   0.41183   0.00000  Uiso   1.00
Co823  Co    0.39676   0.68493   0.52771   0.00000  Uiso   1.00
Co824  Co    0.62323   0.66447   0.55692   0.00000  Uiso   1.00
Co825  Co    0.43793   0.64428   0.64437   0.00000  Uiso   1.00
Co826  Co    0.49970   0.37516   0.32532   0.00000  Uiso   1.00
Co827  Co    0.39676   0.31433   0.52943   0.00000  Uiso   1.00
Co828  Co    0.43794   0.68519   0.58594   0.00000  Uiso   1.00
Co829  Co    0.43793   0.47985   0.70336   0.00000  Uiso   1.00
Co830  Co    0.60264   0.31433   0.52943   0.00000  Uiso   1.00
Co831  Co    0.35559   0.43706   0.35415   0.00000  Uiso   1.00
Co832  Co    0.47911   0.43867   0.70355   0.00000  Uiso   1.00
Co833  Co    0.43793   0.31460   0.58765   0.00000  Uiso   1.00
Co834  Co    0.70559   0.49976   0.55769   0.00000  Uiso   1.00
Co835  Co    0.43793   0.31380   0.41296   0.00000  Uiso   1.00
Co836  Co    0.43794   0.47797   0.29573   0.00000  Uiso   1.00
Co837  Co    0.43794   0.35470   0.35453   0.00000  Uiso   1.00
Co838  Co    0.60265   0.68493   0.52771   0.00000  Uiso   1.00
Co839  Co    0.35559   0.43840   0.64532   0.00000  Uiso   1.00
Co840  Co    0.37617   0.33451   0.44199   0.00000  Uiso   1.00
Co841  Co    0.31440   0.43814   0.58709   0.00000  Uiso   1.00
Co842  Co    0.52030   0.43679   0.29593   0.00000  Uiso   1.00
Co843  Co    0.37617   0.50030   0.67415   0.00000  Uiso   1.00
Co844  Co    0.52029   0.56220   0.70298   0.00000  Uiso   1.00
Co845  Co    0.31441   0.56086   0.41182   0.00000  Uiso   1.00
Co846  Co    0.64383   0.56193   0.64475   0.00000  Uiso   1.00
Co847  Co    0.60265   0.31406   0.47119   0.00000  Uiso   1.00
Co848  Co    0.49971   0.70511   0.44027   0.00000  Uiso   1.00
Co849  Co    0.64382   0.43840   0.64532   0.00000  Uiso   1.00
Co850  Co    0.37617   0.66393   0.44046   0.00000  Uiso   1.00
Co851  Co    0.37617   0.33506   0.55844   0.00000  Uiso   1.00
Co852  Co    0.66441   0.37623   0.55825   0.00000  Uiso   1.00
Co853  Co    0.43794   0.35604   0.64570   0.00000  Uiso   1.00
Co854  Co    0.70559   0.49922   0.44121   0.00000  Uiso   1.00
Co855  Co    0.66441   0.62329   0.55712   0.00000  Uiso   1.00
Co856  Co    0.62324   0.33452   0.44198   0.00000  Uiso   1.00
Co857  Co    0.37617   0.49869   0.32475   0.00000  Uiso   1.00
Co858  Co    0.29382   0.49976   0.55769   0.00000  Uiso   1.00
Co859  Co    0.33499   0.37569   0.44179   0.00000  Uiso   1.00
Co860  Co    0.68500   0.39668   0.52904   0.00000  Uiso   1.00
Co861  Co    0.49971   0.37677   0.67473   0.00000  Uiso   1.00
Co862  Co    0.31440   0.60257   0.52809   0.00000  Uiso   1.00
Co863  Co    0.47912   0.56031   0.29535   0.00000  Uiso   1.00
Co864  Co    0.47911   0.56220   0.70298   0.00000  Uiso   1.00
Co865  Co    0.39676   0.31406   0.47120   0.00000  Uiso   1.00
Co866  Co    0.31440   0.43732   0.41239   0.00000  Uiso   1.00
Co867  Co    0.64382   0.43706   0.35415   0.00000  Uiso   1.00
Co868  Co    0.56147   0.52102   0.70318   0.00000  Uiso   1.00
Co869  Co    0.43794   0.68439   0.41125   0.00000  Uiso   1.00
Co870  Co    0.39676   0.68465   0.46948   0.00000  Uiso   1.00
Co871  Co    0.68500   0.56166   0.58652   0.00000  Uiso   1.00
Co872  Co    0.68500   0.60231   0.46986   0.00000  Uiso   1.00
Co873  Co    0.43794   0.51914   0.29554   0.00000  Uiso   1.00
Co874  Co    0.68501   0.43814   0.58709   0.00000  Uiso   1.00
Co875  Co    0.68500   0.39641   0.47082   0.00000  Uiso   1.00
Co876  Co    0.33499   0.62329   0.55712   0.00000  Uiso   1.00
Co877  Co    0.62324   0.50030   0.67416   0.00000  Uiso   1.00
Co878  Co    0.60265   0.68465   0.46948   0.00000  Uiso   1.00
Co879  Co    0.56147   0.47797   0.29573   0.00000  Uiso   1.00
Co880  Co    0.62324   0.33505   0.55845   0.00000  Uiso   1.00
Co881  Co    0.68501   0.60257   0.52809   0.00000  Uiso   1.00
Co882  Co    0.31440   0.56166   0.58652   0.00000  Uiso   1.00
Co883  Co    0.68501   0.43732   0.41239   0.00000  Uiso   1.00
Co884  Co    0.31440   0.39641   0.47082   0.00000  Uiso   1.00
Co885  Co    0.43794   0.64295   0.35320   0.00000  Uiso   1.00
Co886  Co    0.56147   0.47984   0.70337   0.00000  Uiso   1.00
Co887  Co    0.56147   0.31460   0.58766   0.00000  Uiso   1.00
Co888  Co    0.66441   0.58131   0.38261   0.00000  Uiso   1.00
Co889  Co    0.58205   0.66474   0.61516   0.00000  Uiso   1.00
Co890  Co    0.54088   0.62383   0.67358   0.00000  Uiso   1.00
Co891  Co    0.58205   0.33425   0.38375   0.00000  Uiso   1.00
Co892  Co    0.54088   0.29334   0.44217   0.00000  Uiso   1.00
Co893  Co    0.37618   0.54148   0.67396   0.00000  Uiso   1.00
Co894  Co    0.70559   0.54094   0.55750   0.00000  Uiso   1.00
Co895  Co    0.54088   0.70565   0.55673   0.00000  Uiso   1.00
Co896  Co    0.58206   0.66366   0.38223   0.00000  Uiso   1.00
Co897  Co    0.54088   0.62222   0.32419   0.00000  Uiso   1.00
Co898  Co    0.45852   0.70565   0.55673   0.00000  Uiso   1.00
Co899  Co    0.37617   0.45751   0.32495   0.00000  Uiso   1.00
Co900  Co    0.45853   0.70511   0.44027   0.00000  Uiso   1.00
Co901  Co    0.62324   0.53986   0.32457   0.00000  Uiso   1.00
Co902  Co    0.45853   0.29388   0.55864   0.00000  Uiso   1.00
Co903  Co    0.62323   0.45912   0.67434   0.00000  Uiso   1.00
Co904  Co    0.54088   0.37516   0.32532   0.00000  Uiso   1.00
Co905  Co    0.45852   0.37678   0.67472   0.00000  Uiso   1.00
Co906  Co    0.41735   0.66474   0.61516   0.00000  Uiso   1.00
Co907  Co    0.33500   0.41660   0.38337   0.00000  Uiso   1.00
Co908  Co    0.45852   0.62383   0.67358   0.00000  Uiso   1.00
Co909  Co    0.29382   0.45859   0.55788   0.00000  Uiso   1.00
Co910  Co    0.45852   0.37516   0.32532   0.00000  Uiso   1.00
Co911  Co    0.33499   0.58131   0.38261   0.00000  Uiso   1.00
Co912  Co    0.66441   0.58238   0.61554   0.00000  Uiso   1.00
Co913  Co    0.41735   0.33425   0.38375   0.00000  Uiso   1.00
Co914  Co    0.45852   0.29334   0.44217   0.00000  Uiso   1.00
Co915  Co    0.41735   0.66367   0.38223   0.00000  Uiso   1.00
Co916  Co    0.33500   0.58238   0.61555   0.00000  Uiso   1.00
Co917  Co    0.29382   0.54041   0.44103   0.00000  Uiso   1.00
Co918  Co    0.62324   0.54148   0.67396   0.00000  Uiso   1.00
Co919  Co    0.66441   0.41660   0.38336   0.00000  Uiso   1.00
Co920  Co    0.54089   0.37677   0.67473   0.00000  Uiso   1.00
Co921  Co    0.37617   0.45912   0.67434   0.00000  Uiso   1.00
Co922  Co    0.33499   0.41768   0.61630   0.00000  Uiso   1.00
Co923  Co    0.41735   0.33532   0.61667   0.00000  Uiso   1.00
Co924  Co    0.29382   0.54094   0.55750   0.00000  Uiso   1.00
Co925  Co    0.70559   0.45859   0.55788   0.00000  Uiso   1.00
Co926  Co    0.54088   0.29388   0.55864   0.00000  Uiso   1.00
Co927  Co    0.70559   0.45804   0.44141   0.00000  Uiso   1.00
Co928  Co    0.54089   0.70511   0.44027   0.00000  Uiso   1.00
Co929  Co    0.66442   0.41768   0.61631   0.00000  Uiso   1.00
Co930  Co    0.62324   0.45751   0.32494   0.00000  Uiso   1.00
Co931  Co    0.58206   0.33532   0.61668   0.00000  Uiso   1.00
Co932  Co    0.37617   0.53986   0.32457   0.00000  Uiso   1.00
Co933  Co    0.45853   0.62222   0.32419   0.00000  Uiso   1.00
Co934  Co    0.29381   0.45804   0.44141   0.00000  Uiso   1.00
Co935  Co    0.70560   0.54041   0.44103   0.00000  Uiso   1.00
Co936  Co    0.56147   0.43867   0.70355   0.00000  Uiso   1.00
Co937  Co    0.43794   0.56220   0.70298   0.00000  Uiso   1.00
Co938  Co    0.43794   0.43679   0.29593   0.00000  Uiso   1.00
Co939  Co    0.41735   0.29361   0.50040   0.00000  Uiso   1.00
Co940  Co    0.35558   0.64321   0.41145   0.00000  Uiso   1.00
Co941  Co    0.56147   0.56031   0.29535   0.00000  Uiso   1.00
Co942  Co    0.41735   0.70537   0.49851   0.00000  Uiso   1.00
Co943  Co    0.64382   0.64401   0.58614   0.00000  Uiso   1.00
Co944  Co    0.64382   0.64321   0.41145   0.00000  Uiso   1.00
Co945  Co    0.35559   0.35497   0.41277   0.00000  Uiso   1.00
Co946  Co    0.29382   0.58185   0.49908   0.00000  Uiso   1.00
Co947  Co    0.35558   0.64401   0.58614   0.00000  Uiso   1.00
Co948  Co    0.56147   0.56220   0.70298   0.00000  Uiso   1.00
Co949  Co    0.64382   0.35497   0.41277   0.00000  Uiso   1.00
Co950  Co    0.70559   0.41714   0.49983   0.00000  Uiso   1.00
Co951  Co    0.35559   0.35578   0.58746   0.00000  Uiso   1.00
Co952  Co    0.43794   0.43867   0.70355   0.00000  Uiso   1.00
Co953  Co    0.70559   0.58185   0.49907   0.00000  Uiso   1.00
Co954  Co    0.58206   0.29361   0.50040   0.00000  Uiso   1.00
Co955  Co    0.64382   0.35578   0.58746   0.00000  Uiso   1.00
Co956  Co    0.58206   0.70538   0.49850   0.00000  Uiso   1.00
Co957  Co    0.29382   0.41714   0.49983   0.00000  Uiso   1.00
Co958  Co    0.56147   0.43679   0.29593   0.00000  Uiso   1.00
Co959  Co    0.43794   0.56032   0.29535   0.00000  Uiso   1.00
Co960  Co    0.47911   0.60149   0.29517   0.00000  Uiso   1.00
Co961  Co    0.60264   0.68519   0.58594   0.00000  Uiso   1.00
Co962  Co    0.58206   0.70511   0.44027   0.00000  Uiso   1.00
Co963  Co    0.68500   0.39695   0.58728   0.00000  Uiso   1.00
Co964  Co    0.37617   0.58265   0.67377   0.00000  Uiso   1.00
Co965  Co    0.60264   0.35470   0.35453   0.00000  Uiso   1.00
Co966  Co    0.60264   0.47796   0.29574   0.00000  Uiso   1.00
Co967  Co    0.62323   0.58265   0.67377   0.00000  Uiso   1.00
Co968  Co    0.70559   0.41741   0.55806   0.00000  Uiso   1.00
Co969  Co    0.52029   0.60338   0.70279   0.00000  Uiso   1.00
Co970  Co    0.52029   0.60149   0.29517   0.00000  Uiso   1.00
Co971  Co    0.70559   0.58158   0.44084   0.00000  Uiso   1.00
Co972  Co    0.58205   0.70565   0.55673   0.00000  Uiso   1.00
Co973  Co    0.64382   0.60177   0.35340   0.00000  Uiso   1.00
Co974  Co    0.64382   0.60311   0.64455   0.00000  Uiso   1.00
Co975  Co    0.60264   0.68439   0.41125   0.00000  Uiso   1.00
Co976  Co    0.47912   0.27316   0.52961   0.00000  Uiso   1.00
Co977  Co    0.27323   0.47904   0.52866   0.00000  Uiso   1.00
Co978  Co    0.37617   0.58104   0.32437   0.00000  Uiso   1.00
Co979  Co    0.52029   0.27289   0.47138   0.00000  Uiso   1.00
Co980  Co    0.60264   0.51914   0.29554   0.00000  Uiso   1.00
Co981  Co    0.68500   0.60203   0.41163   0.00000  Uiso   1.00
Co982  Co    0.58205   0.37516   0.32532   0.00000  Uiso   1.00
Co983  Co    0.47911   0.72610   0.52752   0.00000  Uiso   1.00
Co984  Co    0.39676   0.47796   0.29574   0.00000  Uiso   1.00
Co985  Co    0.72618   0.47877   0.47042   0.00000  Uiso   1.00
Co986  Co    0.52029   0.72610   0.52752   0.00000  Uiso   1.00
Co987  Co    0.29382   0.41740   0.55807   0.00000  Uiso   1.00
Co988  Co    0.60265   0.64294   0.35321   0.00000  Uiso   1.00
Co989  Co    0.68500   0.39615   0.41257   0.00000  Uiso   1.00
Co990  Co    0.39676   0.68519   0.58594   0.00000  Uiso   1.00
Co991  Co    0.58205   0.62222   0.32419   0.00000  Uiso   1.00
Co992  Co    0.39676   0.52102   0.70317   0.00000  Uiso   1.00
Co993  Co    0.47911   0.60337   0.70280   0.00000  Uiso   1.00
Co994  Co    0.62323   0.58104   0.32437   0.00000  Uiso   1.00
Co995  Co    0.47911   0.39561   0.29611   0.00000  Uiso   1.00
Co996  Co    0.41735   0.70565   0.55673   0.00000  Uiso   1.00
Co997  Co    0.52029   0.39561   0.29611   0.00000  Uiso   1.00
Co998  Co    0.47912   0.72583   0.46929   0.00000  Uiso   1.00
Co999  Co    0.39676   0.64428   0.64437   0.00000  Uiso   1.00
Co1000 Co    0.27323   0.47876   0.47043   0.00000  Uiso   1.00
Co1001 Co    0.41735   0.29388   0.55864   0.00000  Uiso   1.00
Co1002 Co    0.31441   0.39614   0.41258   0.00000  Uiso   1.00
Co1003 Co    0.39676   0.35470   0.35453   0.00000  Uiso   1.00
Co1004 Co    0.35558   0.60177   0.35340   0.00000  Uiso   1.00
Co1005 Co    0.47911   0.27288   0.47139   0.00000  Uiso   1.00
Co1006 Co    0.68500   0.60284   0.58633   0.00000  Uiso   1.00
Co1007 Co    0.52029   0.39750   0.70374   0.00000  Uiso   1.00
Co1008 Co    0.58206   0.62382   0.67359   0.00000  Uiso   1.00
Co1009 Co    0.41734   0.62382   0.67359   0.00000  Uiso   1.00
Co1010 Co    0.58206   0.37677   0.67473   0.00000  Uiso   1.00
Co1011 Co    0.58205   0.29388   0.55864   0.00000  Uiso   1.00
Co1012 Co    0.31441   0.39695   0.58728   0.00000  Uiso   1.00
Co1013 Co    0.41735   0.37516   0.32532   0.00000  Uiso   1.00
Co1014 Co    0.72618   0.52022   0.52848   0.00000  Uiso   1.00
Co1015 Co    0.60264   0.35604   0.64570   0.00000  Uiso   1.00
Co1016 Co    0.39676   0.31380   0.41296   0.00000  Uiso   1.00
Co1017 Co    0.60265   0.64428   0.64437   0.00000  Uiso   1.00
Co1018 Co    0.39676   0.47985   0.70336   0.00000  Uiso   1.00
Co1019 Co    0.41734   0.37677   0.67473   0.00000  Uiso   1.00
Co1020 Co    0.52029   0.72583   0.46929   0.00000  Uiso   1.00
Co1021 Co    0.58206   0.29334   0.44218   0.00000  Uiso   1.00
Co1022 Co    0.27323   0.51995   0.47024   0.00000  Uiso   1.00
Co1023 Co    0.60265   0.52102   0.70317   0.00000  Uiso   1.00
Co1024 Co    0.41734   0.29334   0.44218   0.00000  Uiso   1.00
Co1025 Co    0.39676   0.31460   0.58765   0.00000  Uiso   1.00
Co1026 Co    0.39676   0.68439   0.41125   0.00000  Uiso   1.00
Co1027 Co    0.47912   0.39750   0.70374   0.00000  Uiso   1.00
Co1028 Co    0.35558   0.60310   0.64456   0.00000  Uiso   1.00
Co1029 Co    0.64383   0.39588   0.35435   0.00000  Uiso   1.00
Co1030 Co    0.60265   0.31380   0.41296   0.00000  Uiso   1.00
Co1031 Co    0.39676   0.51914   0.29554   0.00000  Uiso   1.00
Co1032 Co    0.62323   0.41794   0.67454   0.00000  Uiso   1.00
Co1033 Co    0.37617   0.41794   0.67454   0.00000  Uiso   1.00
Co1034 Co    0.35558   0.39722   0.64552   0.00000  Uiso   1.00
Co1035 Co    0.39676   0.35604   0.64570   0.00000  Uiso   1.00
Co1036 Co    0.72618   0.47904   0.52867   0.00000  Uiso   1.00
Co1037 Co    0.62324   0.41633   0.32514   0.00000  Uiso   1.00
Co1038 Co    0.41735   0.62222   0.32419   0.00000  Uiso   1.00
Co1039 Co    0.29381   0.58211   0.55731   0.00000  Uiso   1.00
Co1040 Co    0.35558   0.39588   0.35435   0.00000  Uiso   1.00
Co1041 Co    0.29381   0.41686   0.44160   0.00000  Uiso   1.00
Co1042 Co    0.52029   0.27315   0.52962   0.00000  Uiso   1.00
Co1043 Co    0.41735   0.70511   0.44026   0.00000  Uiso   1.00
Co1044 Co    0.70559   0.58212   0.55730   0.00000  Uiso   1.00
Co1045 Co    0.64383   0.39722   0.64552   0.00000  Uiso   1.00
Co1046 Co    0.37617   0.41634   0.32513   0.00000  Uiso   1.00
Co1047 Co    0.29382   0.58158   0.44084   0.00000  Uiso   1.00
Co1048 Co    0.70559   0.41687   0.44160   0.00000  Uiso   1.00
Co1049 Co    0.31441   0.60204   0.41162   0.00000  Uiso   1.00
Co1050 Co    0.72618   0.51995   0.47024   0.00000  Uiso   1.00
Co1051 Co    0.31440   0.60284   0.58633   0.00000  Uiso   1.00
Co1052 Co    0.39676   0.64295   0.35320   0.00000  Uiso   1.00
Co1053 Co    0.60265   0.47984   0.70337   0.00000  Uiso   1.00
Co1054 Co    0.60265   0.31460   0.58766   0.00000  Uiso   1.00
Co1055 Co    0.27322   0.52022   0.52848   0.00000  Uiso   1.00
Co1056 Co    0.66441   0.33479   0.50021   0.00000  Uiso   1.00
Co1057 Co    0.33500   0.33478   0.50021   0.00000  Uiso   1.00
Co1058 Co    0.49971   0.50057   0.73238   0.00000  Uiso   1.00
Co1059 Co    0.49971   0.49842   0.26652   0.00000  Uiso   1.00
Co1060 Co    0.33499   0.66421   0.49869   0.00000  Uiso   1.00
Co1061 Co    0.66442   0.66420   0.49869   0.00000  Uiso   1.00
Co1062 Co    0.35559   0.31406   0.47119   0.00000  Uiso   1.00
Co1063 Co    0.72617   0.43786   0.52885   0.00000  Uiso   1.00
Co1064 Co    0.47911   0.68411   0.35302   0.00000  Uiso   1.00
Co1065 Co    0.49970   0.54174   0.73219   0.00000  Uiso   1.00
Co1066 Co    0.47912   0.68546   0.64418   0.00000  Uiso   1.00
Co1067 Co    0.68500   0.47958   0.64513   0.00000  Uiso   1.00
Co1068 Co    0.66441   0.62356   0.61535   0.00000  Uiso   1.00
Co1069 Co    0.49971   0.70591   0.61497   0.00000  Uiso   1.00
Co1070 Co    0.52030   0.68546   0.64418   0.00000  Uiso   1.00
Co1071 Co    0.66441   0.37650   0.61649   0.00000  Uiso   1.00
Co1072 Co    0.54088   0.49841   0.26653   0.00000  Uiso   1.00
Co1073 Co    0.64382   0.68465   0.46948   0.00000  Uiso   1.00
Co1074 Co    0.68500   0.35524   0.47100   0.00000  Uiso   1.00
Co1075 Co    0.27323   0.43786   0.52885   0.00000  Uiso   1.00
Co1076 Co    0.31441   0.35524   0.47100   0.00000  Uiso   1.00
Co1077 Co    0.70559   0.50004   0.61591   0.00000  Uiso   1.00
Co1078 Co    0.39676   0.56220   0.70298   0.00000  Uiso   1.00
Co1079 Co    0.49970   0.29307   0.38394   0.00000  Uiso   1.00
Co1080 Co    0.52029   0.68411   0.35302   0.00000  Uiso   1.00
Co1081 Co    0.60264   0.56220   0.70298   0.00000  Uiso   1.00
Co1082 Co    0.35559   0.68493   0.52771   0.00000  Uiso   1.00
Co1083 Co    0.47912   0.31353   0.35472   0.00000  Uiso   1.00
Co1084 Co    0.64382   0.31433   0.52943   0.00000  Uiso   1.00
Co1085 Co    0.49970   0.70484   0.38204   0.00000  Uiso   1.00
Co1086 Co    0.70559   0.49895   0.38299   0.00000  Uiso   1.00
Co1087 Co    0.52029   0.31353   0.35472   0.00000  Uiso   1.00
Co1088 Co    0.54088   0.50057   0.73238   0.00000  Uiso   1.00
Co1089 Co    0.37617   0.66367   0.38223   0.00000  Uiso   1.00
Co1090 Co    0.43794   0.72583   0.46929   0.00000  Uiso   1.00
Co1091 Co    0.43793   0.72610   0.52752   0.00000  Uiso   1.00
Co1092 Co    0.49970   0.53959   0.26633   0.00000  Uiso   1.00
Co1093 Co    0.43794   0.27316   0.52961   0.00000  Uiso   1.00
Co1094 Co    0.72618   0.56140   0.52828   0.00000  Uiso   1.00
Co1095 Co    0.29382   0.50003   0.61592   0.00000  Uiso   1.00
Co1096 Co    0.56147   0.60149   0.29516   0.00000  Uiso   1.00
Co1097 Co    0.68500   0.51941   0.35378   0.00000  Uiso   1.00
Co1098 Co    0.56147   0.39750   0.70374   0.00000  Uiso   1.00
Co1099 Co    0.56147   0.72610   0.52752   0.00000  Uiso   1.00
Co1100 Co    0.62323   0.66367   0.38223   0.00000  Uiso   1.00
Co1101 Co    0.68500   0.64347   0.46968   0.00000  Uiso   1.00
Co1102 Co    0.60265   0.56031   0.29535   0.00000  Uiso   1.00
Co1103 Co    0.37617   0.66474   0.61516   0.00000  Uiso   1.00
Co1104 Co    0.43793   0.39561   0.29611   0.00000  Uiso   1.00
Co1105 Co    0.66441   0.62249   0.38242   0.00000  Uiso   1.00
Co1106 Co    0.35558   0.31433   0.52943   0.00000  Uiso   1.00
Co1107 Co    0.62324   0.66473   0.61516   0.00000  Uiso   1.00
Co1108 Co    0.68500   0.47823   0.35397   0.00000  Uiso   1.00
Co1109 Co    0.45853   0.50057   0.73238   0.00000  Uiso   1.00
Co1110 Co    0.27323   0.56139   0.52829   0.00000  Uiso   1.00
Co1111 Co    0.33499   0.62356   0.61535   0.00000  Uiso   1.00
Co1112 Co    0.56147   0.39561   0.29611   0.00000  Uiso   1.00
Co1113 Co    0.37617   0.33425   0.38375   0.00000  Uiso   1.00
Co1114 Co    0.64383   0.31406   0.47119   0.00000  Uiso   1.00
Co1115 Co    0.49971   0.45724   0.26671   0.00000  Uiso   1.00
Co1116 Co    0.31441   0.47958   0.64513   0.00000  Uiso   1.00
Co1117 Co    0.60264   0.43867   0.70355   0.00000  Uiso   1.00
Co1118 Co    0.56147   0.60337   0.70280   0.00000  Uiso   1.00
Co1119 Co    0.64382   0.68493   0.52771   0.00000  Uiso   1.00
Co1120 Co    0.62324   0.33425   0.38375   0.00000  Uiso   1.00
Co1121 Co    0.31440   0.52076   0.64494   0.00000  Uiso   1.00
Co1122 Co    0.52029   0.31487   0.64589   0.00000  Uiso   1.00
Co1123 Co    0.66441   0.37542   0.38356   0.00000  Uiso   1.00
Co1124 Co    0.43793   0.60337   0.70280   0.00000  Uiso   1.00
Co1125 Co    0.31441   0.64348   0.46967   0.00000  Uiso   1.00
Co1126 Co    0.72618   0.43759   0.47062   0.00000  Uiso   1.00
Co1127 Co    0.31440   0.35551   0.52923   0.00000  Uiso   1.00
Co1128 Co    0.31441   0.47823   0.35396   0.00000  Uiso   1.00
Co1129 Co    0.56147   0.27288   0.47139   0.00000  Uiso   1.00
Co1130 Co    0.45853   0.49842   0.26652   0.00000  Uiso   1.00
Co1131 Co    0.43793   0.27288   0.47139   0.00000  Uiso   1.00
Co1132 Co    0.49971   0.45939   0.73258   0.00000  Uiso   1.00
Co1133 Co    0.47912   0.31487   0.64589   0.00000  Uiso   1.00
Co1134 Co    0.56147   0.27315   0.52962   0.00000  Uiso   1.00
Co1135 Co    0.33499   0.37650   0.61649   0.00000  Uiso   1.00
Co1136 Co    0.43794   0.60149   0.29516   0.00000  Uiso   1.00
Co1137 Co    0.49971   0.29414   0.61687   0.00000  Uiso   1.00
Co1138 Co    0.39676   0.43867   0.70355   0.00000  Uiso   1.00
Co1139 Co    0.62323   0.33532   0.61668   0.00000  Uiso   1.00
Co1140 Co    0.56147   0.72583   0.46929   0.00000  Uiso   1.00
Co1141 Co    0.37617   0.33532   0.61668   0.00000  Uiso   1.00
Co1142 Co    0.39676   0.43679   0.29593   0.00000  Uiso   1.00
Co1143 Co    0.68500   0.64375   0.52791   0.00000  Uiso   1.00
Co1144 Co    0.43794   0.39749   0.70375   0.00000  Uiso   1.00
Co1145 Co    0.35558   0.68465   0.46948   0.00000  Uiso   1.00
Co1146 Co    0.33499   0.62249   0.38242   0.00000  Uiso   1.00
Co1147 Co    0.31440   0.64375   0.52791   0.00000  Uiso   1.00
Co1148 Co    0.68501   0.52076   0.64494   0.00000  Uiso   1.00
Co1149 Co    0.33499   0.37542   0.38356   0.00000  Uiso   1.00
Co1150 Co    0.60265   0.43679   0.29593   0.00000  Uiso   1.00
Co1151 Co    0.68501   0.35551   0.52923   0.00000  Uiso   1.00
Co1152 Co    0.72618   0.56113   0.47005   0.00000  Uiso   1.00
Co1153 Co    0.27323   0.56113   0.47005   0.00000  Uiso   1.00
Co1154 Co    0.29382   0.49895   0.38299   0.00000  Uiso   1.00
Co1155 Co    0.31441   0.51941   0.35377   0.00000  Uiso   1.00
Co1156 Co    0.39676   0.56032   0.29535   0.00000  Uiso   1.00
Co1157 Co    0.27322   0.43759   0.47062   0.00000  Uiso   1.00
Co1158 Co    0.49971   0.66339   0.32400   0.00000  Uiso   1.00
Co1159 Co    0.45853   0.70591   0.61497   0.00000  Uiso   1.00
Co1160 Co    0.54088   0.70591   0.61497   0.00000  Uiso   1.00
Co1161 Co    0.66441   0.66393   0.44046   0.00000  Uiso   1.00
Co1162 Co    0.66441   0.49869   0.32475   0.00000  Uiso   1.00
Co1163 Co    0.49971   0.66500   0.67339   0.00000  Uiso   1.00
Co1164 Co    0.70559   0.54013   0.38280   0.00000  Uiso   1.00
Co1165 Co    0.37617   0.70537   0.49851   0.00000  Uiso   1.00
Co1166 Co    0.49970   0.33398   0.32552   0.00000  Uiso   1.00
Co1167 Co    0.29382   0.54013   0.38279   0.00000  Uiso   1.00
Co1168 Co    0.45853   0.54174   0.73219   0.00000  Uiso   1.00
Co1169 Co    0.37618   0.29361   0.50040   0.00000  Uiso   1.00
Co1170 Co    0.33500   0.66447   0.55693   0.00000  Uiso   1.00
Co1171 Co    0.54088   0.29308   0.38393   0.00000  Uiso   1.00
Co1172 Co    0.45853   0.29307   0.38394   0.00000  Uiso   1.00
Co1173 Co    0.29382   0.45886   0.61611   0.00000  Uiso   1.00
Co1174 Co    0.45853   0.45724   0.26671   0.00000  Uiso   1.00
Co1175 Co    0.54088   0.70484   0.38204   0.00000  Uiso   1.00
Co1176 Co    0.66441   0.66447   0.55692   0.00000  Uiso   1.00
Co1177 Co    0.54088   0.53959   0.26633   0.00000  Uiso   1.00
Co1178 Co    0.45852   0.45940   0.73257   0.00000  Uiso   1.00
Co1179 Co    0.66441   0.33452   0.44198   0.00000  Uiso   1.00
Co1180 Co    0.29382   0.54121   0.61573   0.00000  Uiso   1.00
Co1181 Co    0.45852   0.29415   0.61686   0.00000  Uiso   1.00
Co1182 Co    0.70559   0.45886   0.61611   0.00000  Uiso   1.00
Co1183 Co    0.49970   0.33559   0.67491   0.00000  Uiso   1.00
Co1184 Co    0.33500   0.33451   0.44199   0.00000  Uiso   1.00
Co1185 Co    0.29382   0.37596   0.50002   0.00000  Uiso   1.00
Co1186 Co    0.33499   0.66393   0.44046   0.00000  Uiso   1.00
Co1187 Co    0.62324   0.29361   0.50040   0.00000  Uiso   1.00
Co1188 Co    0.33499   0.49869   0.32475   0.00000  Uiso   1.00
Co1189 Co    0.54088   0.54174   0.73219   0.00000  Uiso   1.00
Co1190 Co    0.29382   0.62303   0.49888   0.00000  Uiso   1.00
Co1191 Co    0.29382   0.45778   0.38317   0.00000  Uiso   1.00
Co1192 Co    0.54089   0.45939   0.73258   0.00000  Uiso   1.00
Co1193 Co    0.33499   0.50030   0.67415   0.00000  Uiso   1.00
Co1194 Co    0.54089   0.29414   0.61687   0.00000  Uiso   1.00
Co1195 Co    0.33499   0.33506   0.55844   0.00000  Uiso   1.00
Co1196 Co    0.62324   0.70538   0.49850   0.00000  Uiso   1.00
Co1197 Co    0.54089   0.45724   0.26671   0.00000  Uiso   1.00
Co1198 Co    0.70559   0.54120   0.61573   0.00000  Uiso   1.00
Co1199 Co    0.70559   0.37596   0.50003   0.00000  Uiso   1.00
Co1200 Co    0.66442   0.50030   0.67416   0.00000  Uiso   1.00
Co1201 Co    0.66442   0.33505   0.55845   0.00000  Uiso   1.00
Co1202 Co    0.45853   0.70484   0.38204   0.00000  Uiso   1.00
Co1203 Co    0.45853   0.53959   0.26633   0.00000  Uiso   1.00
Co1204 Co    0.70560   0.62303   0.49888   0.00000  Uiso   1.00
Co1205 Co    0.70560   0.45778   0.38317   0.00000  Uiso   1.00
Co1206 Co    0.52029   0.72556   0.41106   0.00000  Uiso   1.00
Co1207 Co    0.47912   0.72637   0.58576   0.00000  Uiso   1.00
Co1208 Co    0.72617   0.51967   0.41201   0.00000  Uiso   1.00
Co1209 Co    0.31441   0.56193   0.64475   0.00000  Uiso   1.00
Co1210 Co    0.43794   0.68546   0.64418   0.00000  Uiso   1.00
Co1211 Co    0.52029   0.72637   0.58576   0.00000  Uiso   1.00
Co1212 Co    0.72617   0.52048   0.58671   0.00000  Uiso   1.00
Co1213 Co    0.31441   0.56058   0.35359   0.00000  Uiso   1.00
Co1214 Co    0.66441   0.45751   0.32495   0.00000  Uiso   1.00
Co1215 Co    0.45853   0.66500   0.67339   0.00000  Uiso   1.00
Co1216 Co    0.56147   0.31353   0.35473   0.00000  Uiso   1.00
Co1217 Co    0.27323   0.51967   0.41201   0.00000  Uiso   1.00
Co1218 Co    0.66441   0.45912   0.67434   0.00000  Uiso   1.00
Co1219 Co    0.54088   0.33398   0.32552   0.00000  Uiso   1.00
Co1220 Co    0.54088   0.66500   0.67339   0.00000  Uiso   1.00
Co1221 Co    0.27323   0.52048   0.58671   0.00000  Uiso   1.00
Co1222 Co    0.54088   0.66339   0.32400   0.00000  Uiso   1.00
Co1223 Co    0.52029   0.27262   0.41315   0.00000  Uiso   1.00
Co1224 Co    0.43794   0.31353   0.35473   0.00000  Uiso   1.00
Co1225 Co    0.33500   0.54148   0.67396   0.00000  Uiso   1.00
Co1226 Co    0.56147   0.68546   0.64418   0.00000  Uiso   1.00
Co1227 Co    0.52029   0.27342   0.58785   0.00000  Uiso   1.00
Co1228 Co    0.54088   0.33559   0.67491   0.00000  Uiso   1.00
Co1229 Co    0.47911   0.27262   0.41315   0.00000  Uiso   1.00
Co1230 Co    0.31441   0.43705   0.35416   0.00000  Uiso   1.00
Co1231 Co    0.45853   0.33398   0.32551   0.00000  Uiso   1.00
Co1232 Co    0.68500   0.56059   0.35358   0.00000  Uiso   1.00
Co1233 Co    0.33500   0.45751   0.32494   0.00000  Uiso   1.00
Co1234 Co    0.56147   0.68412   0.35302   0.00000  Uiso   1.00
Co1235 Co    0.72618   0.47931   0.58690   0.00000  Uiso   1.00
Co1236 Co    0.47911   0.27342   0.58785   0.00000  Uiso   1.00
Co1237 Co    0.56147   0.31487   0.64589   0.00000  Uiso   1.00
Co1238 Co    0.68500   0.43840   0.64532   0.00000  Uiso   1.00
Co1239 Co    0.66441   0.54148   0.67396   0.00000  Uiso   1.00
Co1240 Co    0.66441   0.53986   0.32457   0.00000  Uiso   1.00
Co1241 Co    0.45852   0.66339   0.32400   0.00000  Uiso   1.00
Co1242 Co    0.68500   0.56193   0.64475   0.00000  Uiso   1.00
Co1243 Co    0.31441   0.43840   0.64533   0.00000  Uiso   1.00
Co1244 Co    0.47912   0.72556   0.41106   0.00000  Uiso   1.00
Co1245 Co    0.45852   0.33559   0.67491   0.00000  Uiso   1.00
Co1246 Co    0.33499   0.45912   0.67434   0.00000  Uiso   1.00
Co1247 Co    0.43794   0.68412   0.35302   0.00000  Uiso   1.00
Co1248 Co    0.68500   0.43706   0.35415   0.00000  Uiso   1.00
Co1249 Co    0.27323   0.47931   0.58690   0.00000  Uiso   1.00
Co1250 Co    0.43794   0.31486   0.64589   0.00000  Uiso   1.00
Co1251 Co    0.33499   0.53986   0.32457   0.00000  Uiso   1.00
Co1252 Co    0.72618   0.47850   0.41220   0.00000  Uiso   1.00
Co1253 Co    0.27323   0.47850   0.41220   0.00000  Uiso   1.00
Co1254 Co    0.49971   0.58077   0.26614   0.00000  Uiso   1.00
Co1255 Co    0.70559   0.62275   0.44066   0.00000  Uiso   1.00
Co1256 Co    0.29382   0.62276   0.44065   0.00000  Uiso   1.00
Co1257 Co    0.70559   0.37569   0.44179   0.00000  Uiso   1.00
Co1258 Co    0.62323   0.70565   0.55673   0.00000  Uiso   1.00
Co1259 Co    0.62324   0.70511   0.44027   0.00000  Uiso   1.00
Co1260 Co    0.58206   0.49841   0.26653   0.00000  Uiso   1.00
Co1261 Co    0.62323   0.37516   0.32532   0.00000  Uiso   1.00
Co1262 Co    0.62323   0.29388   0.55864   0.00000  Uiso   1.00
Co1263 Co    0.29382   0.37623   0.55825   0.00000  Uiso   1.00
Co1264 Co    0.37617   0.70565   0.55673   0.00000  Uiso   1.00
Co1265 Co    0.49970   0.58292   0.73201   0.00000  Uiso   1.00
Co1266 Co    0.49970   0.41822   0.73277   0.00000  Uiso   1.00
Co1267 Co    0.62323   0.62222   0.32419   0.00000  Uiso   1.00
Co1268 Co    0.49970   0.74655   0.49831   0.00000  Uiso   1.00
Co1269 Co    0.41735   0.49842   0.26652   0.00000  Uiso   1.00
Co1270 Co    0.37617   0.37516   0.32532   0.00000  Uiso   1.00
Co1271 Co    0.49970   0.25243   0.50060   0.00000  Uiso   1.00
Co1272 Co    0.70559   0.37623   0.55825   0.00000  Uiso   1.00
Co1273 Co    0.41735   0.50057   0.73238   0.00000  Uiso   1.00
Co1274 Co    0.62324   0.62383   0.67358   0.00000  Uiso   1.00
Co1275 Co    0.49970   0.41607   0.26690   0.00000  Uiso   1.00
Co1276 Co    0.37617   0.29388   0.55864   0.00000  Uiso   1.00
Co1277 Co    0.37617   0.62222   0.32419   0.00000  Uiso   1.00
Co1278 Co    0.70559   0.62329   0.55712   0.00000  Uiso   1.00
Co1279 Co    0.37617   0.62382   0.67359   0.00000  Uiso   1.00
Co1280 Co    0.62324   0.29334   0.44217   0.00000  Uiso   1.00
Co1281 Co    0.29382   0.37569   0.44179   0.00000  Uiso   1.00
Co1282 Co    0.37617   0.29334   0.44218   0.00000  Uiso   1.00
Co1283 Co    0.25264   0.49949   0.49946   0.00000  Uiso   1.00
Co1284 Co    0.58206   0.50056   0.73239   0.00000  Uiso   1.00
Co1285 Co    0.37617   0.70511   0.44027   0.00000  Uiso   1.00
Co1286 Co    0.37617   0.37677   0.67473   0.00000  Uiso   1.00
Co1287 Co    0.74677   0.49950   0.49945   0.00000  Uiso   1.00
Co1288 Co    0.29381   0.62329   0.55712   0.00000  Uiso   1.00
Co1289 Co    0.62324   0.37677   0.67473   0.00000  Uiso   1.00
Co1290 Co    0.41735   0.70591   0.61497   0.00000  Uiso   1.00
Co1291 Co    0.45852   0.58292   0.73200   0.00000  Uiso   1.00
Co1292 Co    0.72617   0.60230   0.46987   0.00000  Uiso   1.00
Co1293 Co    0.43794   0.72637   0.58576   0.00000  Uiso   1.00
Co1294 Co    0.25264   0.45831   0.49964   0.00000  Uiso   1.00
Co1295 Co    0.60264   0.72583   0.46930   0.00000  Uiso   1.00
Co1296 Co    0.45852   0.25244   0.50059   0.00000  Uiso   1.00
Co1297 Co    0.39676   0.60338   0.70279   0.00000  Uiso   1.00
Co1298 Co    0.56147   0.27342   0.58785   0.00000  Uiso   1.00
Co1299 Co    0.58206   0.45724   0.26671   0.00000  Uiso   1.00
Co1300 Co    0.31441   0.64321   0.41145   0.00000  Uiso   1.00
Co1301 Co    0.58206   0.70591   0.61497   0.00000  Uiso   1.00
Co1302 Co    0.56147   0.72637   0.58576   0.00000  Uiso   1.00
Co1303 Co    0.56147   0.72556   0.41106   0.00000  Uiso   1.00
Co1304 Co    0.74676   0.45832   0.49964   0.00000  Uiso   1.00
Co1305 Co    0.47911   0.35443   0.29631   0.00000  Uiso   1.00
Co1306 Co    0.56147   0.27262   0.41315   0.00000  Uiso   1.00
Co1307 Co    0.27323   0.60230   0.46987   0.00000  Uiso   1.00
Co1308 Co    0.39676   0.27289   0.47138   0.00000  Uiso   1.00
Co1309 Co    0.39676   0.72583   0.46930   0.00000  Uiso   1.00
Co1310 Co    0.52029   0.35443   0.29631   0.00000  Uiso   1.00
Co1311 Co    0.52029   0.64455   0.70260   0.00000  Uiso   1.00
Co1312 Co    0.35558   0.47796   0.29574   0.00000  Uiso   1.00
Co1313 Co    0.68500   0.64402   0.58613   0.00000  Uiso   1.00
Co1314 Co    0.58206   0.29308   0.38393   0.00000  Uiso   1.00
Co1315 Co    0.47912   0.64455   0.70260   0.00000  Uiso   1.00
Co1316 Co    0.41735   0.29307   0.38394   0.00000  Uiso   1.00
Co1317 Co    0.64382   0.47796   0.29574   0.00000  Uiso   1.00
Co1318 Co    0.54088   0.58077   0.26614   0.00000  Uiso   1.00
Co1319 Co    0.54088   0.41822   0.73277   0.00000  Uiso   1.00
Co1320 Co    0.60265   0.39750   0.70374   0.00000  Uiso   1.00
Co1321 Co    0.47911   0.64267   0.29498   0.00000  Uiso   1.00
Co1322 Co    0.64382   0.68439   0.41125   0.00000  Uiso   1.00
Co1323 Co    0.41735   0.54174   0.73219   0.00000  Uiso   1.00
Co1324 Co    0.64382   0.35604   0.64570   0.00000  Uiso   1.00
Co1325 Co    0.29382   0.41660   0.38337   0.00000  Uiso   1.00
Co1326 Co    0.39676   0.72610   0.52752   0.00000  Uiso   1.00
Co1327 Co    0.31441   0.64401   0.58614   0.00000  Uiso   1.00
Co1328 Co    0.43794   0.27262   0.41315   0.00000  Uiso   1.00
Co1329 Co    0.68500   0.64321   0.41144   0.00000  Uiso   1.00
Co1330 Co    0.64382   0.51914   0.29554   0.00000  Uiso   1.00
Co1331 Co    0.27323   0.56166   0.58652   0.00000  Uiso   1.00
Co1332 Co    0.35558   0.68519   0.58594   0.00000  Uiso   1.00
Co1333 Co    0.58205   0.54174   0.73219   0.00000  Uiso   1.00
Co1334 Co    0.39676   0.27316   0.52961   0.00000  Uiso   1.00
Co1335 Co    0.45852   0.74655   0.49831   0.00000  Uiso   1.00
Co1336 Co    0.70559   0.58238   0.61554   0.00000  Uiso   1.00
Co1337 Co    0.27323   0.39642   0.47081   0.00000  Uiso   1.00
Co1338 Co    0.39676   0.39561   0.29611   0.00000  Uiso   1.00
Co1339 Co    0.60264   0.72610   0.52752   0.00000  Uiso   1.00
Co1340 Co    0.52029   0.64267   0.29498   0.00000  Uiso   1.00
Co1341 Co    0.58205   0.70484   0.38204   0.00000  Uiso   1.00
Co1342 Co    0.72618   0.39668   0.52904   0.00000  Uiso   1.00
Co1343 Co    0.35559   0.52102   0.70317   0.00000  Uiso   1.00
Co1344 Co    0.27323   0.56086   0.41182   0.00000  Uiso   1.00
Co1345 Co    0.35558   0.35470   0.35453   0.00000  Uiso   1.00
Co1346 Co    0.68500   0.35497   0.41277   0.00000  Uiso   1.00
Co1347 Co    0.72618   0.56085   0.41183   0.00000  Uiso   1.00
Co1348 Co    0.58205   0.53959   0.26633   0.00000  Uiso   1.00
Co1349 Co    0.64383   0.64428   0.64437   0.00000  Uiso   1.00
Co1350 Co    0.39676   0.60149   0.29516   0.00000  Uiso   1.00
Co1351 Co    0.68500   0.35578   0.58746   0.00000  Uiso   1.00
Co1352 Co    0.64382   0.52102   0.70317   0.00000  Uiso   1.00
Co1353 Co    0.45852   0.41607   0.26690   0.00000  Uiso   1.00
Co1354 Co    0.29382   0.58131   0.38261   0.00000  Uiso   1.00
Co1355 Co    0.60264   0.39561   0.29611   0.00000  Uiso   1.00
Co1356 Co    0.35558   0.68439   0.41125   0.00000  Uiso   1.00
Co1357 Co    0.64383   0.68519   0.58594   0.00000  Uiso   1.00
Co1358 Co    0.60265   0.60149   0.29516   0.00000  Uiso   1.00
Co1359 Co    0.54088   0.74655   0.49831   0.00000  Uiso   1.00
Co1360 Co    0.64383   0.64294   0.35321   0.00000  Uiso   1.00
Co1361 Co    0.60265   0.60337   0.70280   0.00000  Uiso   1.00
Co1362 Co    0.45852   0.58077   0.26614   0.00000  Uiso   1.00
Co1363 Co    0.70559   0.58131   0.38261   0.00000  Uiso   1.00
Co1364 Co    0.35558   0.64428   0.64437   0.00000  Uiso   1.00
Co1365 Co    0.43794   0.27342   0.58785   0.00000  Uiso   1.00
Co1366 Co    0.70559   0.41660   0.38336   0.00000  Uiso   1.00
Co1367 Co    0.29382   0.58238   0.61554   0.00000  Uiso   1.00
Co1368 Co    0.58206   0.45939   0.73258   0.00000  Uiso   1.00
Co1369 Co    0.35558   0.51914   0.29554   0.00000  Uiso   1.00
Co1370 Co    0.64383   0.31379   0.41296   0.00000  Uiso   1.00
Co1371 Co    0.31441   0.35577   0.58747   0.00000  Uiso   1.00
Co1372 Co    0.60265   0.27316   0.52961   0.00000  Uiso   1.00
Co1373 Co    0.27323   0.43814   0.58709   0.00000  Uiso   1.00
Co1374 Co    0.58206   0.29414   0.61687   0.00000  Uiso   1.00
Co1375 Co    0.64383   0.35470   0.35453   0.00000  Uiso   1.00
Co1376 Co    0.54088   0.41607   0.26690   0.00000  Uiso   1.00
Co1377 Co    0.41734   0.45939   0.73258   0.00000  Uiso   1.00
Co1378 Co    0.60265   0.27288   0.47139   0.00000  Uiso   1.00
Co1379 Co    0.35558   0.31379   0.41296   0.00000  Uiso   1.00
Co1380 Co    0.27323   0.60257   0.52809   0.00000  Uiso   1.00
Co1381 Co    0.45852   0.41822   0.73277   0.00000  Uiso   1.00
Co1382 Co    0.54088   0.58292   0.73201   0.00000  Uiso   1.00
Co1383 Co    0.41734   0.29414   0.61687   0.00000  Uiso   1.00
Co1384 Co    0.27323   0.43732   0.41239   0.00000  Uiso   1.00
Co1385 Co    0.74677   0.54067   0.49927   0.00000  Uiso   1.00
Co1386 Co    0.70559   0.41768   0.61631   0.00000  Uiso   1.00
Co1387 Co    0.29381   0.41768   0.61631   0.00000  Uiso   1.00
Co1388 Co    0.35558   0.47984   0.70337   0.00000  Uiso   1.00
Co1389 Co    0.54088   0.25243   0.50060   0.00000  Uiso   1.00
Co1390 Co    0.52030   0.35632   0.70394   0.00000  Uiso   1.00
Co1391 Co    0.72618   0.56166   0.58652   0.00000  Uiso   1.00
Co1392 Co    0.72618   0.43814   0.58709   0.00000  Uiso   1.00
Co1393 Co    0.35558   0.31460   0.58766   0.00000  Uiso   1.00
Co1394 Co    0.41735   0.70484   0.38204   0.00000  Uiso   1.00
Co1395 Co    0.27323   0.39668   0.52904   0.00000  Uiso   1.00
Co1396 Co    0.41735   0.45725   0.26671   0.00000  Uiso   1.00
Co1397 Co    0.72618   0.39641   0.47082   0.00000  Uiso   1.00
Co1398 Co    0.41735   0.53959   0.26633   0.00000  Uiso   1.00
Co1399 Co    0.47912   0.35632   0.70394   0.00000  Uiso   1.00
Co1400 Co    0.35558   0.35604   0.64570   0.00000  Uiso   1.00
Co1401 Co    0.39676   0.39749   0.70375   0.00000  Uiso   1.00
Co1402 Co    0.64383   0.47984   0.70337   0.00000  Uiso   1.00
Co1403 Co    0.35558   0.64295   0.35320   0.00000  Uiso   1.00
Co1404 Co    0.64383   0.31460   0.58766   0.00000  Uiso   1.00
Co1405 Co    0.31440   0.35497   0.41277   0.00000  Uiso   1.00
Co1406 Co    0.43794   0.72557   0.41105   0.00000  Uiso   1.00
Co1407 Co    0.72618   0.60257   0.52809   0.00000  Uiso   1.00
Co1408 Co    0.25264   0.54067   0.49927   0.00000  Uiso   1.00
Co1409 Co    0.72618   0.43732   0.41239   0.00000  Uiso   1.00
Co1410 Co    0.49971   0.74682   0.55655   0.00000  Uiso   1.00
Co1411 Co    0.58206   0.33559   0.67491   0.00000  Uiso   1.00
Co1412 Co    0.66441   0.58266   0.67376   0.00000  Uiso   1.00
Co1413 Co    0.41735   0.66500   0.67339   0.00000  Uiso   1.00
Co1414 Co    0.33500   0.58103   0.32438   0.00000  Uiso   1.00
Co1415 Co    0.33500   0.58265   0.67377   0.00000  Uiso   1.00
Co1416 Co    0.58206   0.33398   0.32552   0.00000  Uiso   1.00
Co1417 Co    0.41735   0.33398   0.32551   0.00000  Uiso   1.00
Co1418 Co    0.58206   0.66500   0.67339   0.00000  Uiso   1.00
Co1419 Co    0.25264   0.49922   0.44122   0.00000  Uiso   1.00
Co1420 Co    0.49970   0.25216   0.44236   0.00000  Uiso   1.00
Co1421 Co    0.49971   0.25270   0.55882   0.00000  Uiso   1.00
Co1422 Co    0.74677   0.49976   0.55769   0.00000  Uiso   1.00
Co1423 Co    0.58206   0.66339   0.32400   0.00000  Uiso   1.00
Co1424 Co    0.66441   0.58104   0.32437   0.00000  Uiso   1.00
Co1425 Co    0.66441   0.41795   0.67453   0.00000  Uiso   1.00
Co1426 Co    0.74677   0.49922   0.44121   0.00000  Uiso   1.00
Co1427 Co    0.49971   0.74629   0.44008   0.00000  Uiso   1.00
Co1428 Co    0.25264   0.49976   0.55769   0.00000  Uiso   1.00
Co1429 Co    0.33500   0.41794   0.67454   0.00000  Uiso   1.00
Co1430 Co    0.33499   0.41634   0.32513   0.00000  Uiso   1.00
Co1431 Co    0.41735   0.33559   0.67491   0.00000  Uiso   1.00
Co1432 Co    0.66442   0.41633   0.32514   0.00000  Uiso   1.00
Co1433 Co    0.41735   0.66340   0.32399   0.00000  Uiso   1.00
Co1434 Co    0.45853   0.74682   0.55655   0.00000  Uiso   1.00
Co1435 Co    0.39676   0.68546   0.64418   0.00000  Uiso   1.00
Co1436 Co    0.54088   0.74628   0.44009   0.00000  Uiso   1.00
Co1437 Co    0.25264   0.54094   0.55750   0.00000  Uiso   1.00
Co1438 Co    0.68500   0.60310   0.64456   0.00000  Uiso   1.00
Co1439 Co    0.31441   0.60310   0.64456   0.00000  Uiso   1.00
Co1440 Co    0.64382   0.56220   0.70298   0.00000  Uiso   1.00
Co1441 Co    0.60264   0.31353   0.35473   0.00000  Uiso   1.00
Co1442 Co    0.43794   0.35443   0.29631   0.00000  Uiso   1.00
Co1443 Co    0.60265   0.68546   0.64418   0.00000  Uiso   1.00
Co1444 Co    0.54088   0.74682   0.55655   0.00000  Uiso   1.00
Co1445 Co    0.74676   0.54094   0.55749   0.00000  Uiso   1.00
Co1446 Co    0.64382   0.43679   0.29593   0.00000  Uiso   1.00
Co1447 Co    0.39676   0.31353   0.35473   0.00000  Uiso   1.00
Co1448 Co    0.56147   0.64455   0.70260   0.00000  Uiso   1.00
Co1449 Co    0.43793   0.64267   0.29498   0.00000  Uiso   1.00
Co1450 Co    0.54088   0.25216   0.44236   0.00000  Uiso   1.00
Co1451 Co    0.56147   0.35444   0.29630   0.00000  Uiso   1.00
Co1452 Co    0.43794   0.64454   0.70261   0.00000  Uiso   1.00
Co1453 Co    0.54088   0.25270   0.55882   0.00000  Uiso   1.00
Co1454 Co    0.35558   0.56220   0.70298   0.00000  Uiso   1.00
Co1455 Co    0.68500   0.60177   0.35340   0.00000  Uiso   1.00
Co1456 Co    0.64382   0.43867   0.70355   0.00000  Uiso   1.00
Co1457 Co    0.60265   0.31487   0.64589   0.00000  Uiso   1.00
Co1458 Co    0.31440   0.60177   0.35340   0.00000  Uiso   1.00
Co1459 Co    0.74677   0.54040   0.44104   0.00000  Uiso   1.00
Co1460 Co    0.45852   0.25216   0.44236   0.00000  Uiso   1.00
Co1461 Co    0.45853   0.25270   0.55882   0.00000  Uiso   1.00
Co1462 Co    0.25264   0.45859   0.55788   0.00000  Uiso   1.00
Co1463 Co    0.25264   0.54041   0.44103   0.00000  Uiso   1.00
Co1464 Co    0.39676   0.68412   0.35302   0.00000  Uiso   1.00
Co1465 Co    0.45853   0.74629   0.44008   0.00000  Uiso   1.00
Co1466 Co    0.60265   0.68412   0.35302   0.00000  Uiso   1.00
Co1467 Co    0.56147   0.64267   0.29498   0.00000  Uiso   1.00
Co1468 Co    0.64383   0.56031   0.29535   0.00000  Uiso   1.00
Co1469 Co    0.43793   0.35632   0.70394   0.00000  Uiso   1.00
Co1470 Co    0.56147   0.35632   0.70394   0.00000  Uiso   1.00
Co1471 Co    0.74677   0.45859   0.55788   0.00000  Uiso   1.00
Co1472 Co    0.68500   0.39588   0.35435   0.00000  Uiso   1.00
Co1473 Co    0.35558   0.43679   0.29593   0.00000  Uiso   1.00
Co1474 Co    0.74677   0.45804   0.44141   0.00000  Uiso   1.00
Co1475 Co    0.68500   0.39722   0.64552   0.00000  Uiso   1.00
Co1476 Co    0.31440   0.39588   0.35435   0.00000  Uiso   1.00
Co1477 Co    0.35558   0.43867   0.70355   0.00000  Uiso   1.00
Co1478 Co    0.31440   0.39722   0.64552   0.00000  Uiso   1.00
Co1479 Co    0.39676   0.31486   0.64589   0.00000  Uiso   1.00
Co1480 Co    0.35558   0.56032   0.29535   0.00000  Uiso   1.00
Co1481 Co    0.25264   0.45804   0.44141   0.00000  Uiso   1.00
Co1482 Co    0.58206   0.41822   0.73277   0.00000  Uiso   1.00
Co1483 Co    0.41735   0.58292   0.73200   0.00000  Uiso   1.00
Co1484 Co    0.33500   0.66366   0.38223   0.00000  Uiso   1.00
Co1485 Co    0.41735   0.25244   0.50059   0.00000  Uiso   1.00
Co1486 Co    0.25264   0.58185   0.49908   0.00000  Uiso   1.00
Co1487 Co    0.41735   0.74655   0.49831   0.00000  Uiso   1.00
Co1488 Co    0.41735   0.41607   0.26690   0.00000  Uiso   1.00
Co1489 Co    0.33499   0.66474   0.61516   0.00000  Uiso   1.00
Co1490 Co    0.74677   0.41714   0.49983   0.00000  Uiso   1.00
Co1491 Co    0.58206   0.58077   0.26614   0.00000  Uiso   1.00
Co1492 Co    0.66441   0.66367   0.38223   0.00000  Uiso   1.00
Co1493 Co    0.66442   0.66473   0.61516   0.00000  Uiso   1.00
Co1494 Co    0.33499   0.33425   0.38375   0.00000  Uiso   1.00
Co1495 Co    0.66441   0.33532   0.61667   0.00000  Uiso   1.00
Co1496 Co    0.74677   0.58185   0.49907   0.00000  Uiso   1.00
Co1497 Co    0.66442   0.33425   0.38375   0.00000  Uiso   1.00
Co1498 Co    0.58206   0.74655   0.49831   0.00000  Uiso   1.00
Co1499 Co    0.58206   0.58292   0.73201   0.00000  Uiso   1.00
Co1500 Co    0.58206   0.41607   0.26690   0.00000  Uiso   1.00
Co1501 Co    0.58206   0.25243   0.50060   0.00000  Uiso   1.00
Co1502 Co    0.25264   0.41714   0.49983   0.00000  Uiso   1.00
Co1503 Co    0.33500   0.33532   0.61668   0.00000  Uiso   1.00
Co1504 Co    0.41735   0.41822   0.73277   0.00000  Uiso   1.00
Co1505 Co    0.41735   0.58077   0.26614   0.00000  Uiso   1.00
Co1506 Co    0.39677   0.72637   0.58576   0.00000  Uiso   1.00
Co1507 Co    0.52029   0.47769   0.23750   0.00000  Uiso   1.00
Co1508 Co    0.66441   0.70537   0.49851   0.00000  Uiso   1.00
Co1509 Co    0.72618   0.39696   0.58727   0.00000  Uiso   1.00
Co1510 Co    0.31441   0.31406   0.47119   0.00000  Uiso   1.00
Co1511 Co    0.47911   0.51887   0.23732   0.00000  Uiso   1.00
Co1512 Co    0.52029   0.52129   0.76141   0.00000  Uiso   1.00
Co1513 Co    0.31441   0.68492   0.52772   0.00000  Uiso   1.00
Co1514 Co    0.60265   0.27262   0.41314   0.00000  Uiso   1.00
Co1515 Co    0.68500   0.31433   0.52943   0.00000  Uiso   1.00
Co1516 Co    0.70559   0.66420   0.49869   0.00000  Uiso   1.00
Co1517 Co    0.33500   0.70538   0.49850   0.00000  Uiso   1.00
Co1518 Co    0.70559   0.33479   0.50021   0.00000  Uiso   1.00
Co1519 Co    0.60265   0.72637   0.58576   0.00000  Uiso   1.00
Co1520 Co    0.33500   0.29361   0.50040   0.00000  Uiso   1.00
Co1521 Co    0.52029   0.51887   0.23732   0.00000  Uiso   1.00
Co1522 Co    0.49970   0.37489   0.26709   0.00000  Uiso   1.00
Co1523 Co    0.47911   0.52129   0.76141   0.00000  Uiso   1.00
Co1524 Co    0.68500   0.68465   0.46948   0.00000  Uiso   1.00
Co1525 Co    0.49970   0.62195   0.26595   0.00000  Uiso   1.00
Co1526 Co    0.37617   0.49842   0.26652   0.00000  Uiso   1.00
Co1527 Co    0.60265   0.72556   0.41106   0.00000  Uiso   1.00
Co1528 Co    0.72618   0.39615   0.41257   0.00000  Uiso   1.00
Co1529 Co    0.29382   0.33478   0.50021   0.00000  Uiso   1.00
Co1530 Co    0.49970   0.62409   0.73182   0.00000  Uiso   1.00
Co1531 Co    0.62323   0.49842   0.26652   0.00000  Uiso   1.00
Co1532 Co    0.39676   0.27262   0.41315   0.00000  Uiso   1.00
Co1533 Co    0.72618   0.60203   0.41163   0.00000  Uiso   1.00
Co1534 Co    0.66441   0.29361   0.50040   0.00000  Uiso   1.00
Co1535 Co    0.52029   0.48012   0.76159   0.00000  Uiso   1.00
Co1536 Co    0.27323   0.39614   0.41258   0.00000  Uiso   1.00
Co1537 Co    0.72618   0.60284   0.58633   0.00000  Uiso   1.00
Co1538 Co    0.68500   0.31406   0.47119   0.00000  Uiso   1.00
Co1539 Co    0.31441   0.31433   0.52943   0.00000  Uiso   1.00
Co1540 Co    0.60264   0.27342   0.58785   0.00000  Uiso   1.00
Co1541 Co    0.47912   0.47769   0.23750   0.00000  Uiso   1.00
Co1542 Co    0.47912   0.48012   0.76159   0.00000  Uiso   1.00
Co1543 Co    0.68500   0.68493   0.52771   0.00000  Uiso   1.00
Co1544 Co    0.27323   0.39695   0.58728   0.00000  Uiso   1.00
Co1545 Co    0.62323   0.50056   0.73239   0.00000  Uiso   1.00
Co1546 Co    0.37617   0.50056   0.73239   0.00000  Uiso   1.00
Co1547 Co    0.39676   0.27342   0.58785   0.00000  Uiso   1.00
Co1548 Co    0.49970   0.37704   0.73296   0.00000  Uiso   1.00
Co1549 Co    0.29382   0.66420   0.49869   0.00000  Uiso   1.00
Co1550 Co    0.27323   0.60204   0.41162   0.00000  Uiso   1.00
Co1551 Co    0.31441   0.68466   0.46948   0.00000  Uiso   1.00
Co1552 Co    0.39676   0.72557   0.41105   0.00000  Uiso   1.00
Co1553 Co    0.27322   0.60284   0.58633   0.00000  Uiso   1.00
Co1554 Co    0.41735   0.74682   0.55655   0.00000  Uiso   1.00
Co1555 Co    0.37618   0.70591   0.61497   0.00000  Uiso   1.00
Co1556 Co    0.74676   0.41740   0.55807   0.00000  Uiso   1.00
Co1557 Co    0.70559   0.37650   0.61649   0.00000  Uiso   1.00
Co1558 Co    0.62323   0.29307   0.38394   0.00000  Uiso   1.00
Co1559 Co    0.70559   0.62356   0.61535   0.00000  Uiso   1.00
Co1560 Co    0.45853   0.62194   0.26596   0.00000  Uiso   1.00
Co1561 Co    0.58206   0.25216   0.44236   0.00000  Uiso   1.00
Co1562 Co    0.58206   0.74628   0.44009   0.00000  Uiso   1.00
Co1563 Co    0.45853   0.37489   0.26710   0.00000  Uiso   1.00
Co1564 Co    0.62324   0.70591   0.61497   0.00000  Uiso   1.00
Co1565 Co    0.62323   0.54174   0.73219   0.00000  Uiso   1.00
Co1566 Co    0.62324   0.45724   0.26671   0.00000  Uiso   1.00
Co1567 Co    0.58206   0.74682   0.55655   0.00000  Uiso   1.00
Co1568 Co    0.37617   0.29307   0.38394   0.00000  Uiso   1.00
Co1569 Co    0.54088   0.62410   0.73181   0.00000  Uiso   1.00
Co1570 Co    0.74677   0.58158   0.44084   0.00000  Uiso   1.00
Co1571 Co    0.41735   0.74629   0.44008   0.00000  Uiso   1.00
Co1572 Co    0.54088   0.37489   0.26709   0.00000  Uiso   1.00
Co1573 Co    0.25264   0.41740   0.55807   0.00000  Uiso   1.00
Co1574 Co    0.37617   0.54174   0.73219   0.00000  Uiso   1.00
Co1575 Co    0.45853   0.62409   0.73182   0.00000  Uiso   1.00
Co1576 Co    0.54088   0.62195   0.26595   0.00000  Uiso   1.00
Co1577 Co    0.29382   0.62356   0.61535   0.00000  Uiso   1.00
Co1578 Co    0.62323   0.70484   0.38204   0.00000  Uiso   1.00
Co1579 Co    0.41735   0.25216   0.44236   0.00000  Uiso   1.00
Co1580 Co    0.41735   0.25270   0.55882   0.00000  Uiso   1.00
Co1581 Co    0.62323   0.53959   0.26633   0.00000  Uiso   1.00
Co1582 Co    0.70559   0.62249   0.38242   0.00000  Uiso   1.00
Co1583 Co    0.54088   0.37704   0.73295   0.00000  Uiso   1.00
Co1584 Co    0.70559   0.37542   0.38356   0.00000  Uiso   1.00
Co1585 Co    0.37617   0.70484   0.38204   0.00000  Uiso   1.00
Co1586 Co    0.37617   0.53959   0.26633   0.00000  Uiso   1.00
Co1587 Co    0.58206   0.25270   0.55883   0.00000  Uiso   1.00
Co1588 Co    0.37617   0.45724   0.26671   0.00000  Uiso   1.00
Co1589 Co    0.29381   0.62249   0.38242   0.00000  Uiso   1.00
Co1590 Co    0.29382   0.37650   0.61649   0.00000  Uiso   1.00
Co1591 Co    0.25264   0.58211   0.55731   0.00000  Uiso   1.00
Co1592 Co    0.25264   0.58158   0.44084   0.00000  Uiso   1.00
Co1593 Co    0.37617   0.45939   0.73258   0.00000  Uiso   1.00
Co1594 Co    0.25264   0.41686   0.44160   0.00000  Uiso   1.00
Co1595 Co    0.29381   0.37542   0.38356   0.00000  Uiso   1.00
Co1596 Co    0.74677   0.58212   0.55730   0.00000  Uiso   1.00
Co1597 Co    0.37617   0.29414   0.61687   0.00000  Uiso   1.00
Co1598 Co    0.45853   0.37704   0.73296   0.00000  Uiso   1.00
Co1599 Co    0.74677   0.41687   0.44160   0.00000  Uiso   1.00
Co1600 Co    0.62324   0.45939   0.73258   0.00000  Uiso   1.00
Co1601 Co    0.62324   0.29414   0.61687   0.00000  Uiso   1.00
Co1602 Co    0.62323   0.33559   0.67491   0.00000  Uiso   1.00
Co1603 Co    0.49970   0.70618   0.67320   0.00000  Uiso   1.00
Co1604 Co    0.47911   0.56247   0.76121   0.00000  Uiso   1.00
Co1605 Co    0.47912   0.72664   0.64398   0.00000  Uiso   1.00
Co1606 Co    0.56147   0.52129   0.76141   0.00000  Uiso   1.00
Co1607 Co    0.47912   0.76727   0.52733   0.00000  Uiso   1.00
Co1608 Co    0.52029   0.72664   0.64398   0.00000  Uiso   1.00
Co1609 Co    0.72618   0.47958   0.64512   0.00000  Uiso   1.00
Co1610 Co    0.47911   0.23198   0.52980   0.00000  Uiso   1.00
Co1611 Co    0.47912   0.27235   0.35492   0.00000  Uiso   1.00
Co1612 Co    0.35558   0.72583   0.46930   0.00000  Uiso   1.00
Co1613 Co    0.72617   0.35524   0.47100   0.00000  Uiso   1.00
Co1614 Co    0.64382   0.72583   0.46930   0.00000  Uiso   1.00
Co1615 Co    0.49971   0.29280   0.32571   0.00000  Uiso   1.00
Co1616 Co    0.52030   0.27235   0.35492   0.00000  Uiso   1.00
Co1617 Co    0.37617   0.33398   0.32552   0.00000  Uiso   1.00
Co1618 Co    0.56147   0.47769   0.23750   0.00000  Uiso   1.00
Co1619 Co    0.33499   0.62383   0.67358   0.00000  Uiso   1.00
Co1620 Co    0.37617   0.66500   0.67340   0.00000  Uiso   1.00
Co1621 Co    0.52030   0.76727   0.52733   0.00000  Uiso   1.00
Co1622 Co    0.29382   0.66447   0.55693   0.00000  Uiso   1.00
Co1623 Co    0.66441   0.29388   0.55864   0.00000  Uiso   1.00
Co1624 Co    0.60265   0.64455   0.70260   0.00000  Uiso   1.00
Co1625 Co    0.35558   0.60338   0.70279   0.00000  Uiso   1.00
Co1626 Co    0.39676   0.35444   0.29630   0.00000  Uiso   1.00
Co1627 Co    0.27323   0.35524   0.47100   0.00000  Uiso   1.00
Co1628 Co    0.62323   0.33398   0.32551   0.00000  Uiso   1.00
Co1629 Co    0.33499   0.29334   0.44217   0.00000  Uiso   1.00
Co1630 Co    0.62324   0.66500   0.67339   0.00000  Uiso   1.00
Co1631 Co    0.52030   0.56246   0.76122   0.00000  Uiso   1.00
Co1632 Co    0.35559   0.60149   0.29516   0.00000  Uiso   1.00
Co1633 Co    0.35558   0.27289   0.47138   0.00000  Uiso   1.00
Co1634 Co    0.49970   0.70457   0.32380   0.00000  Uiso   1.00
Co1635 Co    0.60265   0.35444   0.29630   0.00000  Uiso   1.00
Co1636 Co    0.23205   0.47904   0.52866   0.00000  Uiso   1.00
Co1637 Co    0.39676   0.64454   0.70261   0.00000  Uiso   1.00
Co1638 Co    0.56147   0.48012   0.76159   0.00000  Uiso   1.00
Co1639 Co    0.33499   0.70565   0.55673   0.00000  Uiso   1.00
Co1640 Co    0.76735   0.47877   0.47042   0.00000  Uiso   1.00
Co1641 Co    0.52029   0.23171   0.47157   0.00000  Uiso   1.00
Co1642 Co    0.52030   0.23198   0.52981   0.00000  Uiso   1.00
Co1643 Co    0.47911   0.72529   0.35283   0.00000  Uiso   1.00
Co1644 Co    0.56147   0.51887   0.23731   0.00000  Uiso   1.00
Co1645 Co    0.66441   0.70511   0.44027   0.00000  Uiso   1.00
Co1646 Co    0.70559   0.33452   0.44198   0.00000  Uiso   1.00
Co1647 Co    0.47911   0.56005   0.23712   0.00000  Uiso   1.00
Co1648 Co    0.43794   0.52129   0.76141   0.00000  Uiso   1.00
Co1649 Co    0.70559   0.66447   0.55692   0.00000  Uiso   1.00
Co1650 Co    0.35558   0.72610   0.52752   0.00000  Uiso   1.00
Co1651 Co    0.35559   0.27316   0.52961   0.00000  Uiso   1.00
Co1652 Co    0.33499   0.37516   0.32532   0.00000  Uiso   1.00
Co1653 Co    0.23205   0.47876   0.47043   0.00000  Uiso   1.00
Co1654 Co    0.64382   0.72610   0.52752   0.00000  Uiso   1.00
Co1655 Co    0.33499   0.62222   0.32419   0.00000  Uiso   1.00
Co1656 Co    0.52029   0.72529   0.35283   0.00000  Uiso   1.00
Co1657 Co    0.72618   0.51941   0.35378   0.00000  Uiso   1.00
Co1658 Co    0.64382   0.27316   0.52961   0.00000  Uiso   1.00
Co1659 Co    0.27323   0.64348   0.46967   0.00000  Uiso   1.00
Co1660 Co    0.47911   0.23171   0.47157   0.00000  Uiso   1.00
Co1661 Co    0.35558   0.39561   0.29611   0.00000  Uiso   1.00
Co1662 Co    0.52029   0.56005   0.23712   0.00000  Uiso   1.00
Co1663 Co    0.72618   0.64347   0.46968   0.00000  Uiso   1.00
Co1664 Co    0.27323   0.47823   0.35396   0.00000  Uiso   1.00
Co1665 Co    0.76736   0.52022   0.52848   0.00000  Uiso   1.00
Co1666 Co    0.64382   0.39561   0.29611   0.00000  Uiso   1.00
Co1667 Co    0.29382   0.33452   0.44198   0.00000  Uiso   1.00
Co1668 Co    0.29382   0.66393   0.44046   0.00000  Uiso   1.00
Co1669 Co    0.64383   0.60337   0.70280   0.00000  Uiso   1.00
Co1670 Co    0.66441   0.62222   0.32419   0.00000  Uiso   1.00
Co1671 Co    0.72618   0.47823   0.35397   0.00000  Uiso   1.00
Co1672 Co    0.47911   0.76701   0.46910   0.00000  Uiso   1.00
Co1673 Co    0.60265   0.35632   0.70394   0.00000  Uiso   1.00
Co1674 Co    0.29382   0.49869   0.32475   0.00000  Uiso   1.00
Co1675 Co    0.70559   0.66393   0.44046   0.00000  Uiso   1.00
Co1676 Co    0.23205   0.51995   0.47025   0.00000  Uiso   1.00
Co1677 Co    0.27323   0.47958   0.64513   0.00000  Uiso   1.00
Co1678 Co    0.66442   0.62383   0.67358   0.00000  Uiso   1.00
Co1679 Co    0.23205   0.52022   0.52848   0.00000  Uiso   1.00
Co1680 Co    0.70559   0.49869   0.32475   0.00000  Uiso   1.00
Co1681 Co    0.64383   0.27288   0.47139   0.00000  Uiso   1.00
Co1682 Co    0.27323   0.52076   0.64494   0.00000  Uiso   1.00
Co1683 Co    0.62324   0.66339   0.32400   0.00000  Uiso   1.00
Co1684 Co    0.47911   0.43652   0.23769   0.00000  Uiso   1.00
Co1685 Co    0.60264   0.64267   0.29498   0.00000  Uiso   1.00
Co1686 Co    0.64382   0.60149   0.29516   0.00000  Uiso   1.00
Co1687 Co    0.52029   0.76701   0.46910   0.00000  Uiso   1.00
Co1688 Co    0.27323   0.35551   0.52923   0.00000  Uiso   1.00
Co1689 Co    0.33499   0.29388   0.55864   0.00000  Uiso   1.00
Co1690 Co    0.43794   0.51887   0.23731   0.00000  Uiso   1.00
Co1691 Co    0.43794   0.48011   0.76160   0.00000  Uiso   1.00
Co1692 Co    0.66442   0.70565   0.55673   0.00000  Uiso   1.00
Co1693 Co    0.66442   0.29334   0.44217   0.00000  Uiso   1.00
Co1694 Co    0.64382   0.39749   0.70375   0.00000  Uiso   1.00
Co1695 Co    0.76736   0.47904   0.52866   0.00000  Uiso   1.00
Co1696 Co    0.33499   0.70511   0.44027   0.00000  Uiso   1.00
Co1697 Co    0.70559   0.50030   0.67416   0.00000  Uiso   1.00
Co1698 Co    0.52029   0.43652   0.23769   0.00000  Uiso   1.00
Co1699 Co    0.29381   0.50030   0.67416   0.00000  Uiso   1.00
Co1700 Co    0.66442   0.37516   0.32532   0.00000  Uiso   1.00
Co1701 Co    0.49970   0.29441   0.67510   0.00000  Uiso   1.00
Co1702 Co    0.52030   0.43894   0.76179   0.00000  Uiso   1.00
Co1703 Co    0.70559   0.33505   0.55845   0.00000  Uiso   1.00
Co1704 Co    0.39676   0.64267   0.29498   0.00000  Uiso   1.00
Co1705 Co    0.72618   0.64375   0.52791   0.00000  Uiso   1.00
Co1706 Co    0.29381   0.33505   0.55845   0.00000  Uiso   1.00
Co1707 Co    0.72618   0.52076   0.64494   0.00000  Uiso   1.00
Co1708 Co    0.27323   0.64375   0.52791   0.00000  Uiso   1.00
Co1709 Co    0.52030   0.27369   0.64608   0.00000  Uiso   1.00
Co1710 Co    0.72618   0.35551   0.52923   0.00000  Uiso   1.00
Co1711 Co    0.66441   0.37677   0.67473   0.00000  Uiso   1.00
Co1712 Co    0.47912   0.43894   0.76179   0.00000  Uiso   1.00
Co1713 Co    0.27323   0.51941   0.35377   0.00000  Uiso   1.00
Co1714 Co    0.39675   0.35632   0.70394   0.00000  Uiso   1.00
Co1715 Co    0.47912   0.27369   0.64608   0.00000  Uiso   1.00
Co1716 Co    0.43794   0.47770   0.23750   0.00000  Uiso   1.00
Co1717 Co    0.35558   0.39749   0.70375   0.00000  Uiso   1.00
Co1718 Co    0.33499   0.37677   0.67473   0.00000  Uiso   1.00
Co1719 Co    0.37617   0.33559   0.67491   0.00000  Uiso   1.00
Co1720 Co    0.37617   0.66340   0.32399   0.00000  Uiso   1.00
Co1721 Co    0.76736   0.51995   0.47024   0.00000  Uiso   1.00
Co1722 Co    0.49970   0.74709   0.61478   0.00000  Uiso   1.00
Co1723 Co    0.54088   0.70618   0.67319   0.00000  Uiso   1.00
Co1724 Co    0.45853   0.70618   0.67320   0.00000  Uiso   1.00
Co1725 Co    0.74676   0.50003   0.61592   0.00000  Uiso   1.00
Co1726 Co    0.49971   0.74601   0.38185   0.00000  Uiso   1.00
Co1727 Co    0.45853   0.29280   0.32571   0.00000  Uiso   1.00
Co1728 Co    0.70559   0.45912   0.67434   0.00000  Uiso   1.00
Co1729 Co    0.54088   0.29280   0.32571   0.00000  Uiso   1.00
Co1730 Co    0.49971   0.25190   0.38413   0.00000  Uiso   1.00
Co1731 Co    0.45853   0.70457   0.32381   0.00000  Uiso   1.00
Co1732 Co    0.70559   0.45751   0.32495   0.00000  Uiso   1.00
Co1733 Co    0.29382   0.45751   0.32494   0.00000  Uiso   1.00
Co1734 Co    0.29382   0.54148   0.67396   0.00000  Uiso   1.00
Co1735 Co    0.74677   0.49895   0.38299   0.00000  Uiso   1.00
Co1736 Co    0.25264   0.50003   0.61592   0.00000  Uiso   1.00
Co1737 Co    0.70559   0.54148   0.67396   0.00000  Uiso   1.00
Co1738 Co    0.49970   0.25297   0.61706   0.00000  Uiso   1.00
Co1739 Co    0.54088   0.70457   0.32380   0.00000  Uiso   1.00
Co1740 Co    0.70559   0.53986   0.32457   0.00000  Uiso   1.00
Co1741 Co    0.54088   0.29441   0.67510   0.00000  Uiso   1.00
Co1742 Co    0.29382   0.45912   0.67434   0.00000  Uiso   1.00
Co1743 Co    0.29381   0.53986   0.32457   0.00000  Uiso   1.00
Co1744 Co    0.25264   0.49895   0.38299   0.00000  Uiso   1.00
Co1745 Co    0.45853   0.29441   0.67510   0.00000  Uiso   1.00
Co1746 Co    0.43794   0.76727   0.52733   0.00000  Uiso   1.00
Co1747 Co    0.62323   0.74655   0.49831   0.00000  Uiso   1.00
Co1748 Co    0.56147   0.72663   0.64399   0.00000  Uiso   1.00
Co1749 Co    0.41735   0.62410   0.73181   0.00000  Uiso   1.00
Co1750 Co    0.54088   0.74709   0.61478   0.00000  Uiso   1.00
Co1751 Co    0.62323   0.41822   0.73277   0.00000  Uiso   1.00
Co1752 Co    0.52029   0.68572   0.70241   0.00000  Uiso   1.00
Co1753 Co    0.43794   0.72663   0.64399   0.00000  Uiso   1.00
Co1754 Co    0.47912   0.31326   0.29650   0.00000  Uiso   1.00
Co1755 Co    0.41735   0.62194   0.26596   0.00000  Uiso   1.00
Co1756 Co    0.62323   0.41607   0.26690   0.00000  Uiso   1.00
Co1757 Co    0.35559   0.68546   0.64418   0.00000  Uiso   1.00
Co1758 Co    0.47911   0.68572   0.70241   0.00000  Uiso   1.00
Co1759 Co    0.76735   0.43786   0.52885   0.00000  Uiso   1.00
Co1760 Co    0.56146   0.76701   0.46910   0.00000  Uiso   1.00
Co1761 Co    0.45853   0.74709   0.61477   0.00000  Uiso   1.00
Co1762 Co    0.43794   0.27235   0.35492   0.00000  Uiso   1.00
Co1763 Co    0.72617   0.43705   0.35416   0.00000  Uiso   1.00
Co1764 Co    0.43794   0.23171   0.47157   0.00000  Uiso   1.00
Co1765 Co    0.52029   0.31326   0.29650   0.00000  Uiso   1.00
Co1766 Co    0.25264   0.54013   0.38280   0.00000  Uiso   1.00
Co1767 Co    0.56146   0.43652   0.23769   0.00000  Uiso   1.00
Co1768 Co    0.41735   0.37489   0.26710   0.00000  Uiso   1.00
Co1769 Co    0.45853   0.25190   0.38413   0.00000  Uiso   1.00
Co1770 Co    0.64382   0.31353   0.35473   0.00000  Uiso   1.00
Co1771 Co    0.68500   0.35604   0.64570   0.00000  Uiso   1.00
Co1772 Co    0.27323   0.56059   0.35358   0.00000  Uiso   1.00
Co1773 Co    0.31441   0.47796   0.29574   0.00000  Uiso   1.00
Co1774 Co    0.54088   0.25190   0.38413   0.00000  Uiso   1.00
Co1775 Co    0.64382   0.68546   0.64418   0.00000  Uiso   1.00
Co1776 Co    0.43793   0.56247   0.76121   0.00000  Uiso   1.00
Co1777 Co    0.76735   0.56113   0.47005   0.00000  Uiso   1.00
Co1778 Co    0.54088   0.74601   0.38185   0.00000  Uiso   1.00
Co1779 Co    0.35558   0.31353   0.35473   0.00000  Uiso   1.00
Co1780 Co    0.27323   0.43705   0.35416   0.00000  Uiso   1.00
Co1781 Co    0.56147   0.27235   0.35492   0.00000  Uiso   1.00
Co1782 Co    0.74676   0.54013   0.38279   0.00000  Uiso   1.00
Co1783 Co    0.23205   0.43786   0.52885   0.00000  Uiso   1.00
Co1784 Co    0.56147   0.23171   0.47157   0.00000  Uiso   1.00
Co1785 Co    0.58206   0.62410   0.73181   0.00000  Uiso   1.00
Co1786 Co    0.43793   0.23198   0.52980   0.00000  Uiso   1.00
Co1787 Co    0.37617   0.58292   0.73200   0.00000  Uiso   1.00
Co1788 Co    0.43793   0.72529   0.35283   0.00000  Uiso   1.00
Co1789 Co    0.52030   0.68385   0.29479   0.00000  Uiso   1.00
Co1790 Co    0.54088   0.25297   0.61706   0.00000  Uiso   1.00
Co1791 Co    0.35559   0.68412   0.35302   0.00000  Uiso   1.00
Co1792 Co    0.37617   0.74655   0.49831   0.00000  Uiso   1.00
Co1793 Co    0.43793   0.56005   0.23712   0.00000  Uiso   1.00
Co1794 Co    0.56147   0.76727   0.52733   0.00000  Uiso   1.00
Co1795 Co    0.68500   0.47797   0.29573   0.00000  Uiso   1.00
Co1796 Co    0.72618   0.56193   0.64475   0.00000  Uiso   1.00
Co1797 Co    0.37617   0.25244   0.50059   0.00000  Uiso   1.00
Co1798 Co    0.76735   0.56140   0.52828   0.00000  Uiso   1.00
Co1799 Co    0.72618   0.43840   0.64532   0.00000  Uiso   1.00
Co1800 Co    0.68500   0.68439   0.41125   0.00000  Uiso   1.00
Co1801 Co    0.31440   0.68519   0.58594   0.00000  Uiso   1.00
Co1802 Co    0.37617   0.41607   0.26690   0.00000  Uiso   1.00
Co1803 Co    0.68500   0.52102   0.70317   0.00000  Uiso   1.00
Co1804 Co    0.68500   0.51914   0.29554   0.00000  Uiso   1.00
Co1805 Co    0.72618   0.56059   0.35358   0.00000  Uiso   1.00
Co1806 Co    0.74677   0.45886   0.61611   0.00000  Uiso   1.00
Co1807 Co    0.58206   0.37704   0.73295   0.00000  Uiso   1.00
Co1808 Co    0.31440   0.68439   0.41125   0.00000  Uiso   1.00
Co1809 Co    0.58206   0.37489   0.26709   0.00000  Uiso   1.00
Co1810 Co    0.45852   0.74601   0.38185   0.00000  Uiso   1.00
Co1811 Co    0.23205   0.56139   0.52829   0.00000  Uiso   1.00
Co1812 Co    0.74677   0.62302   0.49889   0.00000  Uiso   1.00
Co1813 Co    0.31440   0.35470   0.35453   0.00000  Uiso   1.00
Co1814 Co    0.43794   0.76701   0.46910   0.00000  Uiso   1.00
Co1815 Co    0.31440   0.51914   0.29554   0.00000  Uiso   1.00
Co1816 Co    0.31441   0.52102   0.70318   0.00000  Uiso   1.00
Co1817 Co    0.68500   0.64428   0.64437   0.00000  Uiso   1.00
Co1818 Co    0.74677   0.45777   0.38318   0.00000  Uiso   1.00
Co1819 Co    0.25264   0.54121   0.61573   0.00000  Uiso   1.00
Co1820 Co    0.52029   0.31513   0.70412   0.00000  Uiso   1.00
Co1821 Co    0.25264   0.62303   0.49888   0.00000  Uiso   1.00
Co1822 Co    0.25264   0.37596   0.50002   0.00000  Uiso   1.00
Co1823 Co    0.43794   0.43652   0.23769   0.00000  Uiso   1.00
Co1824 Co    0.25264   0.45778   0.38317   0.00000  Uiso   1.00
Co1825 Co    0.76736   0.43759   0.47062   0.00000  Uiso   1.00
Co1826 Co    0.62324   0.58292   0.73201   0.00000  Uiso   1.00
Co1827 Co    0.68500   0.31379   0.41296   0.00000  Uiso   1.00
Co1828 Co    0.56147   0.72529   0.35283   0.00000  Uiso   1.00
Co1829 Co    0.27323   0.43840   0.64533   0.00000  Uiso   1.00
Co1830 Co    0.68501   0.68519   0.58594   0.00000  Uiso   1.00
Co1831 Co    0.56147   0.56005   0.23712   0.00000  Uiso   1.00
Co1832 Co    0.31440   0.64428   0.64437   0.00000  Uiso   1.00
Co1833 Co    0.45852   0.25297   0.61706   0.00000  Uiso   1.00
Co1834 Co    0.58206   0.62195   0.26595   0.00000  Uiso   1.00
Co1835 Co    0.62324   0.25243   0.50060   0.00000  Uiso   1.00
Co1836 Co    0.23205   0.43759   0.47062   0.00000  Uiso   1.00
Co1837 Co    0.64382   0.68412   0.35302   0.00000  Uiso   1.00
Co1838 Co    0.47911   0.68385   0.29478   0.00000  Uiso   1.00
Co1839 Co    0.62324   0.58077   0.26614   0.00000  Uiso   1.00
Co1840 Co    0.43793   0.43894   0.76179   0.00000  Uiso   1.00
Co1841 Co    0.27323   0.56193   0.64475   0.00000  Uiso   1.00
Co1842 Co    0.56147   0.43894   0.76179   0.00000  Uiso   1.00
Co1843 Co    0.68500   0.64294   0.35321   0.00000  Uiso   1.00
Co1844 Co    0.68501   0.35470   0.35453   0.00000  Uiso   1.00
Co1845 Co    0.74677   0.54120   0.61573   0.00000  Uiso   1.00
Co1846 Co    0.31440   0.31379   0.41296   0.00000  Uiso   1.00
Co1847 Co    0.43793   0.27369   0.64608   0.00000  Uiso   1.00
Co1848 Co    0.47911   0.31513   0.70412   0.00000  Uiso   1.00
Co1849 Co    0.64382   0.31486   0.64589   0.00000  Uiso   1.00
Co1850 Co    0.56147   0.27369   0.64608   0.00000  Uiso   1.00
Co1851 Co    0.74677   0.37596   0.50003   0.00000  Uiso   1.00
Co1852 Co    0.56147   0.56246   0.76122   0.00000  Uiso   1.00
Co1853 Co    0.68500   0.47984   0.70337   0.00000  Uiso   1.00
Co1854 Co    0.31440   0.64294   0.35321   0.00000  Uiso   1.00
Co1855 Co    0.68500   0.31460   0.58766   0.00000  Uiso   1.00
Co1856 Co    0.56147   0.23198   0.52981   0.00000  Uiso   1.00
Co1857 Co    0.31440   0.47984   0.70337   0.00000  Uiso   1.00
Co1858 Co    0.23205   0.56113   0.47005   0.00000  Uiso   1.00
Co1859 Co    0.31440   0.31460   0.58766   0.00000  Uiso   1.00
Co1860 Co    0.25264   0.45886   0.61611   0.00000  Uiso   1.00
Co1861 Co    0.31440   0.35604   0.64570   0.00000  Uiso   1.00
Co1862 Co    0.37617   0.41822   0.73277   0.00000  Uiso   1.00
Co1863 Co    0.35558   0.31486   0.64589   0.00000  Uiso   1.00
Co1864 Co    0.41735   0.37704   0.73296   0.00000  Uiso   1.00
Co1865 Co    0.37617   0.58077   0.26614   0.00000  Uiso   1.00
Co1866 Co    0.47911   0.76754   0.58557   0.00000  Uiso   1.00
Co1867 Co    0.56147   0.68572   0.70241   0.00000  Uiso   1.00
Co1868 Co    0.41735   0.29280   0.32571   0.00000  Uiso   1.00
Co1869 Co    0.52029   0.76754   0.58557   0.00000  Uiso   1.00
Co1870 Co    0.41735   0.70457   0.32381   0.00000  Uiso   1.00
Co1871 Co    0.58206   0.70618   0.67319   0.00000  Uiso   1.00
Co1872 Co    0.47911   0.76673   0.41087   0.00000  Uiso   1.00
Co1873 Co    0.47912   0.60364   0.76102   0.00000  Uiso   1.00
Co1874 Co    0.41735   0.70618   0.67320   0.00000  Uiso   1.00
Co1875 Co    0.43794   0.31326   0.29650   0.00000  Uiso   1.00
Co1876 Co    0.76735   0.52048   0.58671   0.00000  Uiso   1.00
Co1877 Co    0.37617   0.25216   0.44236   0.00000  Uiso   1.00
Co1878 Co    0.68500   0.56220   0.70298   0.00000  Uiso   1.00
Co1879 Co    0.76735   0.51967   0.41201   0.00000  Uiso   1.00
Co1880 Co    0.29382   0.58103   0.32438   0.00000  Uiso   1.00
Co1881 Co    0.43794   0.68572   0.70241   0.00000  Uiso   1.00
Co1882 Co    0.62323   0.25216   0.44236   0.00000  Uiso   1.00
Co1883 Co    0.25264   0.37569   0.44179   0.00000  Uiso   1.00
Co1884 Co    0.25264   0.62275   0.44066   0.00000  Uiso   1.00
Co1885 Co    0.70559   0.58266   0.67376   0.00000  Uiso   1.00
Co1886 Co    0.58206   0.29280   0.32571   0.00000  Uiso   1.00
Co1887 Co    0.56147   0.31326   0.29650   0.00000  Uiso   1.00
Co1888 Co    0.23205   0.51967   0.41201   0.00000  Uiso   1.00
Co1889 Co    0.52029   0.76673   0.41087   0.00000  Uiso   1.00
Co1890 Co    0.64382   0.27262   0.41314   0.00000  Uiso   1.00
Co1891 Co    0.68500   0.43867   0.70355   0.00000  Uiso   1.00
Co1892 Co    0.27323   0.64321   0.41144   0.00000  Uiso   1.00
Co1893 Co    0.52029   0.23144   0.41334   0.00000  Uiso   1.00
Co1894 Co    0.37617   0.74629   0.44008   0.00000  Uiso   1.00
Co1895 Co    0.74676   0.37570   0.44178   0.00000  Uiso   1.00
Co1896 Co    0.70559   0.41633   0.32514   0.00000  Uiso   1.00
Co1897 Co    0.47912   0.23144   0.41334   0.00000  Uiso   1.00
Co1898 Co    0.74676   0.62276   0.44065   0.00000  Uiso   1.00
Co1899 Co    0.23205   0.52048   0.58671   0.00000  Uiso   1.00
Co1900 Co    0.76735   0.47850   0.41220   0.00000  Uiso   1.00
Co1901 Co    0.72618   0.64402   0.58613   0.00000  Uiso   1.00
Co1902 Co    0.29382   0.58265   0.67377   0.00000  Uiso   1.00
Co1903 Co    0.60265   0.48012   0.76159   0.00000  Uiso   1.00
Co1904 Co    0.62323   0.74629   0.44008   0.00000  Uiso   1.00
Co1905 Co    0.68500   0.43679   0.29593   0.00000  Uiso   1.00
Co1906 Co    0.56147   0.31513   0.70412   0.00000  Uiso   1.00
Co1907 Co    0.47912   0.39535   0.23788   0.00000  Uiso   1.00
Co1908 Co    0.64383   0.72637   0.58576   0.00000  Uiso   1.00
Co1909 Co    0.52030   0.60122   0.23693   0.00000  Uiso   1.00
Co1910 Co    0.76735   0.47931   0.58690   0.00000  Uiso   1.00
Co1911 Co    0.60265   0.47769   0.23750   0.00000  Uiso   1.00
Co1912 Co    0.27323   0.64401   0.58614   0.00000  Uiso   1.00
Co1913 Co    0.64382   0.27342   0.58785   0.00000  Uiso   1.00
Co1914 Co    0.31441   0.56220   0.70298   0.00000  Uiso   1.00
Co1915 Co    0.60264   0.52129   0.76141   0.00000  Uiso   1.00
Co1916 Co    0.70559   0.41795   0.67453   0.00000  Uiso   1.00
Co1917 Co    0.62324   0.74682   0.55655   0.00000  Uiso   1.00
Co1918 Co    0.72618   0.35578   0.58746   0.00000  Uiso   1.00
Co1919 Co    0.72618   0.64321   0.41144   0.00000  Uiso   1.00
Co1920 Co    0.52029   0.39535   0.23788   0.00000  Uiso   1.00
Co1921 Co    0.35558   0.72637   0.58576   0.00000  Uiso   1.00
Co1922 Co    0.52029   0.23225   0.58803   0.00000  Uiso   1.00
Co1923 Co    0.74677   0.37623   0.55825   0.00000  Uiso   1.00
Co1924 Co    0.35558   0.27262   0.41315   0.00000  Uiso   1.00
Co1925 Co    0.58206   0.29441   0.67510   0.00000  Uiso   1.00
Co1926 Co    0.52029   0.60364   0.76103   0.00000  Uiso   1.00
Co1927 Co    0.72618   0.35497   0.41277   0.00000  Uiso   1.00
Co1928 Co    0.39676   0.51887   0.23731   0.00000  Uiso   1.00
Co1929 Co    0.64383   0.72556   0.41106   0.00000  Uiso   1.00
Co1930 Co    0.37617   0.74682   0.55654   0.00000  Uiso   1.00
Co1931 Co    0.56147   0.68385   0.29479   0.00000  Uiso   1.00
Co1932 Co    0.52029   0.39776   0.76198   0.00000  Uiso   1.00
Co1933 Co    0.60265   0.51887   0.23731   0.00000  Uiso   1.00
Co1934 Co    0.39676   0.52129   0.76141   0.00000  Uiso   1.00
Co1935 Co    0.47912   0.23225   0.58803   0.00000  Uiso   1.00
Co1936 Co    0.43793   0.68385   0.29479   0.00000  Uiso   1.00
Co1937 Co    0.62323   0.25270   0.55883   0.00000  Uiso   1.00
Co1938 Co    0.70559   0.58104   0.32437   0.00000  Uiso   1.00
Co1939 Co    0.37617   0.25270   0.55883   0.00000  Uiso   1.00
Co1940 Co    0.27323   0.35577   0.58747   0.00000  Uiso   1.00
Co1941 Co    0.74677   0.62329   0.55712   0.00000  Uiso   1.00
Co1942 Co    0.58206   0.70457   0.32380   0.00000  Uiso   1.00
Co1943 Co    0.47911   0.60123   0.23692   0.00000  Uiso   1.00
Co1944 Co    0.47911   0.39776   0.76198   0.00000  Uiso   1.00
Co1945 Co    0.68500   0.56031   0.29535   0.00000  Uiso   1.00
Co1946 Co    0.29382   0.41633   0.32514   0.00000  Uiso   1.00
Co1947 Co    0.39676   0.48011   0.76160   0.00000  Uiso   1.00
Co1948 Co    0.35558   0.72557   0.41105   0.00000  Uiso   1.00
Co1949 Co    0.31441   0.43679   0.29592   0.00000  Uiso   1.00
Co1950 Co    0.35558   0.27342   0.58785   0.00000  Uiso   1.00
Co1951 Co    0.31440   0.56031   0.29535   0.00000  Uiso   1.00
Co1952 Co    0.29382   0.41794   0.67454   0.00000  Uiso   1.00
Co1953 Co    0.23205   0.47931   0.58690   0.00000  Uiso   1.00
Co1954 Co    0.39676   0.47770   0.23750   0.00000  Uiso   1.00
Co1955 Co    0.25264   0.62329   0.55712   0.00000  Uiso   1.00
Co1956 Co    0.23205   0.47850   0.41220   0.00000  Uiso   1.00
Co1957 Co    0.43793   0.31513   0.70412   0.00000  Uiso   1.00
Co1958 Co    0.31440   0.43867   0.70355   0.00000  Uiso   1.00
Co1959 Co    0.25264   0.37623   0.55825   0.00000  Uiso   1.00
Co1960 Co    0.27322   0.35497   0.41277   0.00000  Uiso   1.00
Co1961 Co    0.41735   0.29441   0.67510   0.00000  Uiso   1.00
Co1962 Co    0.58206   0.74709   0.61478   0.00000  Uiso   1.00
Co1963 Co    0.41735   0.74709   0.61477   0.00000  Uiso   1.00
Co1964 Co    0.49971   0.33371   0.26729   0.00000  Uiso   1.00
Co1965 Co    0.49970   0.66527   0.73162   0.00000  Uiso   1.00
Co1966 Co    0.58206   0.25297   0.61706   0.00000  Uiso   1.00
Co1967 Co    0.41735   0.25190   0.38413   0.00000  Uiso   1.00
Co1968 Co    0.33500   0.49841   0.26653   0.00000  Uiso   1.00
Co1969 Co    0.58206   0.25190   0.38413   0.00000  Uiso   1.00
Co1970 Co    0.25264   0.41660   0.38337   0.00000  Uiso   1.00
Co1971 Co    0.74677   0.58238   0.61554   0.00000  Uiso   1.00
Co1972 Co    0.25264   0.58131   0.38261   0.00000  Uiso   1.00
Co1973 Co    0.58206   0.74601   0.38185   0.00000  Uiso   1.00
Co1974 Co    0.66441   0.50057   0.73238   0.00000  Uiso   1.00
Co1975 Co    0.66441   0.49842   0.26652   0.00000  Uiso   1.00
Co1976 Co    0.49970   0.66313   0.26577   0.00000  Uiso   1.00
Co1977 Co    0.74677   0.41660   0.38336   0.00000  Uiso   1.00
Co1978 Co    0.25264   0.58238   0.61554   0.00000  Uiso   1.00
Co1979 Co    0.74677   0.41768   0.61630   0.00000  Uiso   1.00
Co1980 Co    0.74677   0.58131   0.38261   0.00000  Uiso   1.00
Co1981 Co    0.33500   0.50056   0.73239   0.00000  Uiso   1.00
Co1982 Co    0.41735   0.25297   0.61706   0.00000  Uiso   1.00
Co1983 Co    0.25264   0.41768   0.61631   0.00000  Uiso   1.00
Co1984 Co    0.49971   0.33586   0.73315   0.00000  Uiso   1.00
Co1985 Co    0.41735   0.74602   0.38184   0.00000  Uiso   1.00
Co1986 Co    0.35559   0.64455   0.70260   0.00000  Uiso   1.00
Co1987 Co    0.60264   0.72663   0.64399   0.00000  Uiso   1.00
Co1988 Co    0.43794   0.76754   0.58557   0.00000  Uiso   1.00
Co1989 Co    0.45853   0.33371   0.26729   0.00000  Uiso   1.00
Co1990 Co    0.39676   0.72663   0.64399   0.00000  Uiso   1.00
Co1991 Co    0.54088   0.66527   0.73162   0.00000  Uiso   1.00
Co1992 Co    0.35558   0.35632   0.70393   0.00000  Uiso   1.00
Co1993 Co    0.49970   0.21126   0.50079   0.00000  Uiso   1.00
Co1994 Co    0.72617   0.60310   0.64456   0.00000  Uiso   1.00
Co1995 Co    0.39676   0.27235   0.35492   0.00000  Uiso   1.00
Co1996 Co    0.56147   0.76754   0.58556   0.00000  Uiso   1.00
Co1997 Co    0.43794   0.60364   0.76102   0.00000  Uiso   1.00
Co1998 Co    0.66441   0.29307   0.38394   0.00000  Uiso   1.00
Co1999 Co    0.76735   0.60230   0.46987   0.00000  Uiso   1.00
Co2000 Co    0.29382   0.66366   0.38223   0.00000  Uiso   1.00
Co2001 Co    0.60264   0.76701   0.46910   0.00000  Uiso   1.00
Co2002 Co    0.66441   0.54174   0.73219   0.00000  Uiso   1.00
Co2003 Co    0.27323   0.60310   0.64456   0.00000  Uiso   1.00
Co2004 Co    0.39676   0.23171   0.47157   0.00000  Uiso   1.00
Co2005 Co    0.60264   0.23171   0.47157   0.00000  Uiso   1.00
Co2006 Co    0.60265   0.27235   0.35492   0.00000  Uiso   1.00
Co2007 Co    0.54088   0.33371   0.26729   0.00000  Uiso   1.00
Co2008 Co    0.35559   0.35444   0.29630   0.00000  Uiso   1.00
Co2009 Co    0.23205   0.60230   0.46987   0.00000  Uiso   1.00
Co2010 Co    0.60264   0.43652   0.23769   0.00000  Uiso   1.00
Co2011 Co    0.45852   0.66527   0.73162   0.00000  Uiso   1.00
Co2012 Co    0.56147   0.23144   0.41334   0.00000  Uiso   1.00
Co2013 Co    0.43794   0.39535   0.23788   0.00000  Uiso   1.00
Co2014 Co    0.64383   0.64455   0.70260   0.00000  Uiso   1.00
Co2015 Co    0.49971   0.78773   0.49812   0.00000  Uiso   1.00
Co2016 Co    0.21146   0.49950   0.49945   0.00000  Uiso   1.00
Co2017 Co    0.66441   0.70591   0.61497   0.00000  Uiso   1.00
Co2018 Co    0.43794   0.23144   0.41335   0.00000  Uiso   1.00
Co2019 Co    0.56147   0.76674   0.41087   0.00000  Uiso   1.00
Co2020 Co    0.56147   0.39776   0.76198   0.00000  Uiso   1.00
Co2021 Co    0.27323   0.60177   0.35340   0.00000  Uiso   1.00
Co2022 Co    0.33499   0.29307   0.38394   0.00000  Uiso   1.00
Co2023 Co    0.39676   0.56247   0.76121   0.00000  Uiso   1.00
Co2024 Co    0.56147   0.23225   0.58803   0.00000  Uiso   1.00
Co2025 Co    0.76735   0.39668   0.52904   0.00000  Uiso   1.00
Co2026 Co    0.56147   0.60364   0.76103   0.00000  Uiso   1.00
Co2027 Co    0.23205   0.56086   0.41182   0.00000  Uiso   1.00
Co2028 Co    0.39676   0.76701   0.46910   0.00000  Uiso   1.00
Co2029 Co    0.66441   0.45724   0.26671   0.00000  Uiso   1.00
Co2030 Co    0.64382   0.35444   0.29630   0.00000  Uiso   1.00
Co2031 Co    0.23205   0.56166   0.58652   0.00000  Uiso   1.00
Co2032 Co    0.39676   0.76727   0.52733   0.00000  Uiso   1.00
Co2033 Co    0.45852   0.66313   0.26577   0.00000  Uiso   1.00
Co2034 Co    0.39676   0.23198   0.52980   0.00000  Uiso   1.00
Co2035 Co    0.23205   0.39642   0.47081   0.00000  Uiso   1.00
Co2036 Co    0.70559   0.33532   0.61667   0.00000  Uiso   1.00
Co2037 Co    0.39676   0.43652   0.23769   0.00000  Uiso   1.00
Co2038 Co    0.33499   0.70591   0.61497   0.00000  Uiso   1.00
Co2039 Co    0.60265   0.76727   0.52733   0.00000  Uiso   1.00
Co2040 Co    0.64383   0.35632   0.70394   0.00000  Uiso   1.00
Co2041 Co    0.29381   0.66473   0.61516   0.00000  Uiso   1.00
Co2042 Co    0.33499   0.70484   0.38204   0.00000  Uiso   1.00
Co2043 Co    0.33499   0.54174   0.73219   0.00000  Uiso   1.00
Co2044 Co    0.43794   0.76674   0.41087   0.00000  Uiso   1.00
Co2045 Co    0.56147   0.60122   0.23693   0.00000  Uiso   1.00
Co2046 Co    0.33499   0.53959   0.26633   0.00000  Uiso   1.00
Co2047 Co    0.56147   0.39535   0.23788   0.00000  Uiso   1.00
Co2048 Co    0.70559   0.66474   0.61516   0.00000  Uiso   1.00
Co2049 Co    0.76736   0.56086   0.41182   0.00000  Uiso   1.00
Co2050 Co    0.66441   0.70484   0.38204   0.00000  Uiso   1.00
Co2051 Co    0.29381   0.33425   0.38375   0.00000  Uiso   1.00
Co2052 Co    0.70559   0.66367   0.38223   0.00000  Uiso   1.00
Co2053 Co    0.60265   0.43894   0.76179   0.00000  Uiso   1.00
Co2054 Co    0.76736   0.43813   0.58709   0.00000  Uiso   1.00
Co2055 Co    0.35558   0.64267   0.29498   0.00000  Uiso   1.00
Co2056 Co    0.66441   0.53959   0.26633   0.00000  Uiso   1.00
Co2057 Co    0.43793   0.60122   0.23693   0.00000  Uiso   1.00
Co2058 Co    0.23205   0.60257   0.52810   0.00000  Uiso   1.00
Co2059 Co    0.70559   0.33425   0.38375   0.00000  Uiso   1.00
Co2060 Co    0.60265   0.27369   0.64608   0.00000  Uiso   1.00
Co2061 Co    0.43794   0.23224   0.58804   0.00000  Uiso   1.00
Co2062 Co    0.72618   0.39722   0.64552   0.00000  Uiso   1.00
Co2063 Co    0.23205   0.43732   0.41239   0.00000  Uiso   1.00
Co2064 Co    0.23205   0.43813   0.58709   0.00000  Uiso   1.00
Co2065 Co    0.54088   0.66313   0.26577   0.00000  Uiso   1.00
Co2066 Co    0.60264   0.72529   0.35283   0.00000  Uiso   1.00
Co2067 Co    0.60265   0.56246   0.76122   0.00000  Uiso   1.00
Co2068 Co    0.33499   0.45724   0.26671   0.00000  Uiso   1.00
Co2069 Co    0.60264   0.56005   0.23712   0.00000  Uiso   1.00
Co2070 Co    0.64382   0.64267   0.29498   0.00000  Uiso   1.00
Co2071 Co    0.76736   0.56166   0.58652   0.00000  Uiso   1.00
Co2072 Co    0.60265   0.23198   0.52981   0.00000  Uiso   1.00
Co2073 Co    0.72618   0.39588   0.35435   0.00000  Uiso   1.00
Co2074 Co    0.72618   0.60177   0.35340   0.00000  Uiso   1.00
Co2075 Co    0.27323   0.39588   0.35435   0.00000  Uiso   1.00
Co2076 Co    0.76736   0.39642   0.47081   0.00000  Uiso   1.00
Co2077 Co    0.39676   0.72529   0.35283   0.00000  Uiso   1.00
Co2078 Co    0.54088   0.33586   0.73315   0.00000  Uiso   1.00
Co2079 Co    0.39676   0.56005   0.23712   0.00000  Uiso   1.00
Co2080 Co    0.78795   0.49950   0.49945   0.00000  Uiso   1.00
Co2081 Co    0.29382   0.33532   0.61668   0.00000  Uiso   1.00
Co2082 Co    0.23205   0.39668   0.52904   0.00000  Uiso   1.00
Co2083 Co    0.66441   0.45939   0.73258   0.00000  Uiso   1.00
Co2084 Co    0.39675   0.43894   0.76179   0.00000  Uiso   1.00
Co2085 Co    0.66441   0.29414   0.61687   0.00000  Uiso   1.00
Co2086 Co    0.43793   0.39776   0.76198   0.00000  Uiso   1.00
Co2087 Co    0.39675   0.27369   0.64608   0.00000  Uiso   1.00
Co2088 Co    0.27322   0.39722   0.64552   0.00000  Uiso   1.00
Co2089 Co    0.33499   0.45939   0.73258   0.00000  Uiso   1.00
Co2090 Co    0.76736   0.60257   0.52809   0.00000  Uiso   1.00
Co2091 Co    0.33499   0.29414   0.61687   0.00000  Uiso   1.00
Co2092 Co    0.76736   0.43732   0.41239   0.00000  Uiso   1.00
Co2093 Co    0.45853   0.33586   0.73315   0.00000  Uiso   1.00
Co2094 Co    0.37618   0.62410   0.73181   0.00000  Uiso   1.00
Co2095 Co    0.49971   0.49815   0.20829   0.00000  Uiso   1.00
Co2096 Co    0.45853   0.78773   0.49812   0.00000  Uiso   1.00
Co2097 Co    0.33500   0.33559   0.67491   0.00000  Uiso   1.00
Co2098 Co    0.21147   0.45831   0.49964   0.00000  Uiso   1.00
Co2099 Co    0.37618   0.37704   0.73295   0.00000  Uiso   1.00
Co2100 Co    0.37617   0.37489   0.26710   0.00000  Uiso   1.00
Co2101 Co    0.70559   0.70537   0.49851   0.00000  Uiso   1.00
Co2102 Co    0.45853   0.21126   0.50079   0.00000  Uiso   1.00
Co2103 Co    0.29382   0.70538   0.49850   0.00000  Uiso   1.00
Co2104 Co    0.33500   0.33398   0.32552   0.00000  Uiso   1.00
Co2105 Co    0.66441   0.66500   0.67339   0.00000  Uiso   1.00
Co2106 Co    0.78794   0.45832   0.49964   0.00000  Uiso   1.00
Co2107 Co    0.33500   0.66500   0.67340   0.00000  Uiso   1.00
Co2108 Co    0.62324   0.62410   0.73181   0.00000  Uiso   1.00
Co2109 Co    0.66441   0.33398   0.32551   0.00000  Uiso   1.00
Co2110 Co    0.29382   0.29361   0.50040   0.00000  Uiso   1.00
Co2111 Co    0.62324   0.37704   0.73295   0.00000  Uiso   1.00
Co2112 Co    0.66441   0.33559   0.67491   0.00000  Uiso   1.00
Co2113 Co    0.49970   0.50084   0.79062   0.00000  Uiso   1.00
Co2114 Co    0.54089   0.78773   0.49812   0.00000  Uiso   1.00
Co2115 Co    0.54088   0.21126   0.50079   0.00000  Uiso   1.00
Co2116 Co    0.70559   0.29361   0.50040   0.00000  Uiso   1.00
Co2117 Co    0.37618   0.62195   0.26595   0.00000  Uiso   1.00
Co2118 Co    0.62324   0.37489   0.26709   0.00000  Uiso   1.00
Co2119 Co    0.78795   0.54067   0.49927   0.00000  Uiso   1.00
Co2120 Co    0.62324   0.62195   0.26595   0.00000  Uiso   1.00
Co2121 Co    0.66442   0.66339   0.32400   0.00000  Uiso   1.00
Co2122 Co    0.33499   0.66340   0.32399   0.00000  Uiso   1.00
Co2123 Co    0.21146   0.54067   0.49927   0.00000  Uiso   1.00
Co2124 Co    0.78794   0.49922   0.44122   0.00000  Uiso   1.00
Co2125 Co    0.39677   0.31326   0.29650   0.00000  Uiso   1.00
Co2126 Co    0.60265   0.68573   0.70240   0.00000  Uiso   1.00
Co2127 Co    0.72617   0.68492   0.52772   0.00000  Uiso   1.00
Co2128 Co    0.31441   0.39750   0.70374   0.00000  Uiso   1.00
Co2129 Co    0.49970   0.78800   0.55635   0.00000  Uiso   1.00
Co2130 Co    0.39676   0.31513   0.70412   0.00000  Uiso   1.00
Co2131 Co    0.31441   0.72583   0.46930   0.00000  Uiso   1.00
Co2132 Co    0.72618   0.31434   0.52942   0.00000  Uiso   1.00
Co2133 Co    0.49970   0.78746   0.43989   0.00000  Uiso   1.00
Co2134 Co    0.27323   0.68492   0.52772   0.00000  Uiso   1.00
Co2135 Co    0.60264   0.31513   0.70412   0.00000  Uiso   1.00
Co2136 Co    0.31441   0.60149   0.29516   0.00000  Uiso   1.00
Co2137 Co    0.39676   0.68572   0.70241   0.00000  Uiso   1.00
Co2138 Co    0.54088   0.50084   0.79062   0.00000  Uiso   1.00
Co2139 Co    0.49970   0.45697   0.20848   0.00000  Uiso   1.00
Co2140 Co    0.60265   0.31326   0.29650   0.00000  Uiso   1.00
Co2141 Co    0.68500   0.72609   0.52753   0.00000  Uiso   1.00
Co2142 Co    0.54088   0.49815   0.20829   0.00000  Uiso   1.00
Co2143 Co    0.68500   0.72583   0.46929   0.00000  Uiso   1.00
Co2144 Co    0.21146   0.49922   0.44122   0.00000  Uiso   1.00
Co2145 Co    0.68500   0.39561   0.29612   0.00000  Uiso   1.00
Co2146 Co    0.49970   0.53933   0.20810   0.00000  Uiso   1.00
Co2147 Co    0.31440   0.60338   0.70279   0.00000  Uiso   1.00
Co2148 Co    0.49970   0.21098   0.44256   0.00000  Uiso   1.00
Co2149 Co    0.31441   0.72610   0.52752   0.00000  Uiso   1.00
Co2150 Co    0.72618   0.31406   0.47119   0.00000  Uiso   1.00
Co2151 Co    0.78794   0.49976   0.55769   0.00000  Uiso   1.00
Co2152 Co    0.72618   0.68465   0.46948   0.00000  Uiso   1.00
Co2153 Co    0.31440   0.27289   0.47138   0.00000  Uiso   1.00
Co2154 Co    0.68500   0.27316   0.52961   0.00000  Uiso   1.00
Co2155 Co    0.31441   0.39561   0.29611   0.00000  Uiso   1.00
Co2156 Co    0.49971   0.54201   0.79043   0.00000  Uiso   1.00
Co2157 Co    0.45852   0.49815   0.20829   0.00000  Uiso   1.00
Co2158 Co    0.31441   0.27315   0.52962   0.00000  Uiso   1.00
Co2159 Co    0.45852   0.50084   0.79062   0.00000  Uiso   1.00
Co2160 Co    0.49971   0.21152   0.55902   0.00000  Uiso   1.00
Co2161 Co    0.39676   0.68385   0.29479   0.00000  Uiso   1.00
Co2162 Co    0.68500   0.39749   0.70375   0.00000  Uiso   1.00
Co2163 Co    0.68501   0.60338   0.70279   0.00000  Uiso   1.00
Co2164 Co    0.27323   0.31433   0.52943   0.00000  Uiso   1.00
Co2165 Co    0.68501   0.27289   0.47138   0.00000  Uiso   1.00
Co2166 Co    0.49970   0.45966   0.79081   0.00000  Uiso   1.00
Co2167 Co    0.27323   0.31406   0.47119   0.00000  Uiso   1.00
Co2168 Co    0.60265   0.68385   0.29479   0.00000  Uiso   1.00
Co2169 Co    0.21146   0.49976   0.55769   0.00000  Uiso   1.00
Co2170 Co    0.27323   0.68466   0.46948   0.00000  Uiso   1.00
Co2171 Co    0.68500   0.60149   0.29516   0.00000  Uiso   1.00
Co2172 Co    0.41735   0.33371   0.26729   0.00000  Uiso   1.00
Co2173 Co    0.41735   0.33587   0.73314   0.00000  Uiso   1.00
Co2174 Co    0.62323   0.70618   0.67320   0.00000  Uiso   1.00
Co2175 Co    0.37618   0.29280   0.32571   0.00000  Uiso   1.00
Co2176 Co    0.58206   0.66527   0.73162   0.00000  Uiso   1.00
Co2177 Co    0.66441   0.74655   0.49831   0.00000  Uiso   1.00
Co2178 Co    0.45853   0.78799   0.55636   0.00000  Uiso   1.00
Co2179 Co    0.74676   0.33478   0.50021   0.00000  Uiso   1.00
Co2180 Co    0.66441   0.41607   0.26690   0.00000  Uiso   1.00
Co2181 Co    0.37617   0.70618   0.67320   0.00000  Uiso   1.00
Co2182 Co    0.33500   0.41822   0.73277   0.00000  Uiso   1.00
Co2183 Co    0.21147   0.54094   0.55750   0.00000  Uiso   1.00
Co2184 Co    0.29382   0.37678   0.67472   0.00000  Uiso   1.00
Co2185 Co    0.70559   0.29388   0.55864   0.00000  Uiso   1.00
Co2186 Co    0.54088   0.78800   0.55635   0.00000  Uiso   1.00
Co2187 Co    0.37618   0.29441   0.67510   0.00000  Uiso   1.00
Co2188 Co    0.54088   0.78746   0.43989   0.00000  Uiso   1.00
Co2189 Co    0.62324   0.29280   0.32571   0.00000  Uiso   1.00
Co2190 Co    0.45853   0.53932   0.20810   0.00000  Uiso   1.00
Co2191 Co    0.78794   0.54094   0.55749   0.00000  Uiso   1.00
Co2192 Co    0.45852   0.54202   0.79042   0.00000  Uiso   1.00
Co2193 Co    0.54088   0.45697   0.20848   0.00000  Uiso   1.00
Co2194 Co    0.29382   0.62383   0.67358   0.00000  Uiso   1.00
Co2195 Co    0.58206   0.33371   0.26729   0.00000  Uiso   1.00
Co2196 Co    0.54088   0.21099   0.44255   0.00000  Uiso   1.00
Co2197 Co    0.41735   0.66527   0.73162   0.00000  Uiso   1.00
Co2198 Co    0.41735   0.66313   0.26577   0.00000  Uiso   1.00
Co2199 Co    0.74677   0.66420   0.49869   0.00000  Uiso   1.00
Co2200 Co    0.33499   0.74655   0.49831   0.00000  Uiso   1.00
Co2201 Co    0.45852   0.21153   0.55901   0.00000  Uiso   1.00
Co2202 Co    0.29382   0.29334   0.44217   0.00000  Uiso   1.00
Co2203 Co    0.66441   0.41822   0.73277   0.00000  Uiso   1.00
Co2204 Co    0.29382   0.70565   0.55673   0.00000  Uiso   1.00
Co2205 Co    0.62324   0.29441   0.67510   0.00000  Uiso   1.00
Co2206 Co    0.29382   0.62222   0.32419   0.00000  Uiso   1.00
Co2207 Co    0.33499   0.41607   0.26690   0.00000  Uiso   1.00
Co2208 Co    0.54089   0.54201   0.79043   0.00000  Uiso   1.00
Co2209 Co    0.45853   0.21098   0.44256   0.00000  Uiso   1.00
Co2210 Co    0.33499   0.58292   0.73200   0.00000  Uiso   1.00
Co2211 Co    0.29382   0.37516   0.32532   0.00000  Uiso   1.00
Co2212 Co    0.25264   0.33478   0.50021   0.00000  Uiso   1.00
Co2213 Co    0.21146   0.54041   0.44103   0.00000  Uiso   1.00
Co2214 Co    0.54089   0.21152   0.55902   0.00000  Uiso   1.00
Co2215 Co    0.54088   0.53933   0.20810   0.00000  Uiso   1.00
Co2216 Co    0.33499   0.25244   0.50059   0.00000  Uiso   1.00
Co2217 Co    0.78795   0.54040   0.44104   0.00000  Uiso   1.00
Co2218 Co    0.70559   0.62382   0.67359   0.00000  Uiso   1.00
Co2219 Co    0.37618   0.70457   0.32380   0.00000  Uiso   1.00
Co2220 Co    0.70559   0.70511   0.44027   0.00000  Uiso   1.00
Co2221 Co    0.21146   0.45859   0.55788   0.00000  Uiso   1.00
Co2222 Co    0.54088   0.45966   0.79080   0.00000  Uiso   1.00
Co2223 Co    0.66442   0.58292   0.73201   0.00000  Uiso   1.00
Co2224 Co    0.70559   0.29334   0.44218   0.00000  Uiso   1.00
Co2225 Co    0.66442   0.25243   0.50060   0.00000  Uiso   1.00
Co2226 Co    0.70559   0.62222   0.32419   0.00000  Uiso   1.00
Co2227 Co    0.78795   0.45859   0.55788   0.00000  Uiso   1.00
Co2228 Co    0.45853   0.78746   0.43989   0.00000  Uiso   1.00
Co2229 Co    0.29381   0.70511   0.44027   0.00000  Uiso   1.00
Co2230 Co    0.58206   0.33586   0.73315   0.00000  Uiso   1.00
Co2231 Co    0.70559   0.37677   0.67473   0.00000  Uiso   1.00
Co2232 Co    0.45853   0.45697   0.20848   0.00000  Uiso   1.00
Co2233 Co    0.25264   0.66420   0.49869   0.00000  Uiso   1.00
Co2234 Co    0.78795   0.45804   0.44141   0.00000  Uiso   1.00
Co2235 Co    0.29382   0.29388   0.55864   0.00000  Uiso   1.00
Co2236 Co    0.70560   0.70565   0.55673   0.00000  Uiso   1.00
Co2237 Co    0.62324   0.70457   0.32380   0.00000  Uiso   1.00
Co2238 Co    0.45853   0.45966   0.79081   0.00000  Uiso   1.00
Co2239 Co    0.58206   0.66313   0.26577   0.00000  Uiso   1.00
Co2240 Co    0.66442   0.58077   0.26614   0.00000  Uiso   1.00
Co2241 Co    0.70560   0.37516   0.32532   0.00000  Uiso   1.00
Co2242 Co    0.33499   0.58077   0.26614   0.00000  Uiso   1.00
Co2243 Co    0.21146   0.45804   0.44141   0.00000  Uiso   1.00
Co2244 Co    0.58206   0.78773   0.49812   0.00000  Uiso   1.00
Co2245 Co    0.78794   0.58185   0.49908   0.00000  Uiso   1.00
Co2246 Co    0.37617   0.74709   0.61478   0.00000  Uiso   1.00
Co2247 Co    0.60264   0.39534   0.23789   0.00000  Uiso   1.00
Co2248 Co    0.25264   0.62356   0.61535   0.00000  Uiso   1.00
Co2249 Co    0.62323   0.25297   0.61706   0.00000  Uiso   1.00
Co2250 Co    0.39676   0.76754   0.58556   0.00000  Uiso   1.00
Co2251 Co    0.62323   0.74709   0.61477   0.00000  Uiso   1.00
Co2252 Co    0.47912   0.35417   0.23807   0.00000  Uiso   1.00
Co2253 Co    0.31441   0.31487   0.64589   0.00000  Uiso   1.00
Co2254 Co    0.39676   0.39776   0.76198   0.00000  Uiso   1.00
Co2255 Co    0.74676   0.62356   0.61534   0.00000  Uiso   1.00
Co2256 Co    0.60265   0.76754   0.58556   0.00000  Uiso   1.00
Co2257 Co    0.39676   0.60364   0.76102   0.00000  Uiso   1.00
Co2258 Co    0.39676   0.39534   0.23789   0.00000  Uiso   1.00
Co2259 Co    0.52029   0.64482   0.76083   0.00000  Uiso   1.00
Co2260 Co    0.60264   0.39776   0.76198   0.00000  Uiso   1.00
Co2261 Co    0.68500   0.31353   0.35472   0.00000  Uiso   1.00
Co2262 Co    0.31441   0.68412   0.35302   0.00000  Uiso   1.00
Co2263 Co    0.37617   0.25189   0.38414   0.00000  Uiso   1.00
Co2264 Co    0.52030   0.35417   0.23807   0.00000  Uiso   1.00
Co2265 Co    0.60265   0.23144   0.41334   0.00000  Uiso   1.00
Co2266 Co    0.68500   0.68546   0.64418   0.00000  Uiso   1.00
Co2267 Co    0.41735   0.21126   0.50079   0.00000  Uiso   1.00
Co2268 Co    0.31441   0.31353   0.35473   0.00000  Uiso   1.00
Co2269 Co    0.64382   0.52129   0.76141   0.00000  Uiso   1.00
Co2270 Co    0.62324   0.25190   0.38413   0.00000  Uiso   1.00
Co2271 Co    0.47911   0.64482   0.76083   0.00000  Uiso   1.00
Co2272 Co    0.60265   0.23225   0.58803   0.00000  Uiso   1.00
Co2273 Co    0.58205   0.21126   0.50079   0.00000  Uiso   1.00
Co2274 Co    0.21146   0.58185   0.49908   0.00000  Uiso   1.00
Co2275 Co    0.60265   0.60364   0.76102   0.00000  Uiso   1.00
Co2276 Co    0.39676   0.23144   0.41335   0.00000  Uiso   1.00
Co2277 Co    0.35559   0.51887   0.23731   0.00000  Uiso   1.00
Co2278 Co    0.39676   0.76674   0.41087   0.00000  Uiso   1.00
Co2279 Co    0.76735   0.39615   0.41257   0.00000  Uiso   1.00
Co2280 Co    0.47912   0.64240   0.23674   0.00000  Uiso   1.00
Co2281 Co    0.60265   0.76674   0.41087   0.00000  Uiso   1.00
Co2282 Co    0.78794   0.41714   0.49983   0.00000  Uiso   1.00
Co2283 Co    0.23205   0.39614   0.41258   0.00000  Uiso   1.00
Co2284 Co    0.41735   0.78773   0.49812   0.00000  Uiso   1.00
Co2285 Co    0.64383   0.47769   0.23750   0.00000  Uiso   1.00
Co2286 Co    0.76736   0.60284   0.58633   0.00000  Uiso   1.00
Co2287 Co    0.76736   0.60203   0.41163   0.00000  Uiso   1.00
Co2288 Co    0.39676   0.60122   0.23693   0.00000  Uiso   1.00
Co2289 Co    0.68500   0.31486   0.64589   0.00000  Uiso   1.00
Co2290 Co    0.52029   0.64240   0.23674   0.00000  Uiso   1.00
Co2291 Co    0.23205   0.60284   0.58633   0.00000  Uiso   1.00
Co2292 Co    0.62324   0.74601   0.38185   0.00000  Uiso   1.00
Co2293 Co    0.31440   0.68546   0.64418   0.00000  Uiso   1.00
Co2294 Co    0.74677   0.37542   0.38356   0.00000  Uiso   1.00
Co2295 Co    0.64382   0.48011   0.76160   0.00000  Uiso   1.00
Co2296 Co    0.64382   0.51887   0.23731   0.00000  Uiso   1.00
Co2297 Co    0.23205   0.39695   0.58728   0.00000  Uiso   1.00
Co2298 Co    0.74677   0.62249   0.38242   0.00000  Uiso   1.00
Co2299 Co    0.35558   0.52129   0.76141   0.00000  Uiso   1.00
Co2300 Co    0.23205   0.60203   0.41163   0.00000  Uiso   1.00
Co2301 Co    0.60265   0.60122   0.23693   0.00000  Uiso   1.00
Co2302 Co    0.21146   0.41714   0.49983   0.00000  Uiso   1.00
Co2303 Co    0.39676   0.23224   0.58804   0.00000  Uiso   1.00
Co2304 Co    0.35558   0.47770   0.23750   0.00000  Uiso   1.00
Co2305 Co    0.68500   0.68412   0.35302   0.00000  Uiso   1.00
Co2306 Co    0.25264   0.62249   0.38241   0.00000  Uiso   1.00
Co2307 Co    0.52029   0.35658   0.76217   0.00000  Uiso   1.00
Co2308 Co    0.25264   0.37650   0.61649   0.00000  Uiso   1.00
Co2309 Co    0.25264   0.37542   0.38356   0.00000  Uiso   1.00
Co2310 Co    0.35558   0.48011   0.76160   0.00000  Uiso   1.00
Co2311 Co    0.37617   0.74602   0.38184   0.00000  Uiso   1.00
Co2312 Co    0.37617   0.25297   0.61706   0.00000  Uiso   1.00
Co2313 Co    0.47911   0.35658   0.76217   0.00000  Uiso   1.00
Co2314 Co    0.74677   0.37650   0.61649   0.00000  Uiso   1.00
Co2315 Co    0.76736   0.39695   0.58728   0.00000  Uiso   1.00
Co2316 Co    0.49970   0.25163   0.32589   0.00000  Uiso   1.00
Co2317 Co    0.58206   0.50084   0.79062   0.00000  Uiso   1.00
Co2318 Co    0.66441   0.25217   0.44236   0.00000  Uiso   1.00
Co2319 Co    0.33500   0.74628   0.44009   0.00000  Uiso   1.00
Co2320 Co    0.33500   0.25216   0.44236   0.00000  Uiso   1.00
Co2321 Co    0.49971   0.58319   0.79023   0.00000  Uiso   1.00
Co2322 Co    0.25264   0.66447   0.55693   0.00000  Uiso   1.00
Co2323 Co    0.74677   0.33452   0.44198   0.00000  Uiso   1.00
Co2324 Co    0.66441   0.74629   0.44008   0.00000  Uiso   1.00
Co2325 Co    0.58206   0.49815   0.20829   0.00000  Uiso   1.00
Co2326 Co    0.25264   0.66393   0.44046   0.00000  Uiso   1.00
Co2327 Co    0.74677   0.66447   0.55692   0.00000  Uiso   1.00
Co2328 Co    0.66441   0.25270   0.55882   0.00000  Uiso   1.00
Co2329 Co    0.25264   0.49869   0.32475   0.00000  Uiso   1.00
Co2330 Co    0.33499   0.74682   0.55654   0.00000  Uiso   1.00
Co2331 Co    0.49971   0.41580   0.20867   0.00000  Uiso   1.00
Co2332 Co    0.66442   0.74682   0.55655   0.00000  Uiso   1.00
Co2333 Co    0.49970   0.74575   0.32362   0.00000  Uiso   1.00
Co2334 Co    0.25264   0.33452   0.44198   0.00000  Uiso   1.00
Co2335 Co    0.49970   0.58050   0.20791   0.00000  Uiso   1.00
Co2336 Co    0.41735   0.50084   0.79062   0.00000  Uiso   1.00
Co2337 Co    0.33500   0.25270   0.55883   0.00000  Uiso   1.00
Co2338 Co    0.74677   0.50030   0.67415   0.00000  Uiso   1.00
Co2339 Co    0.74677   0.66393   0.44046   0.00000  Uiso   1.00
Co2340 Co    0.74677   0.33506   0.55844   0.00000  Uiso   1.00
Co2341 Co    0.74677   0.49869   0.32475   0.00000  Uiso   1.00
Co2342 Co    0.25264   0.50030   0.67416   0.00000  Uiso   1.00
Co2343 Co    0.25264   0.33505   0.55845   0.00000  Uiso   1.00
Co2344 Co    0.49970   0.74737   0.67301   0.00000  Uiso   1.00
Co2345 Co    0.49971   0.41848   0.79100   0.00000  Uiso   1.00
Co2346 Co    0.41735   0.49815   0.20828   0.00000  Uiso   1.00
Co2347 Co    0.49971   0.25323   0.67529   0.00000  Uiso   1.00
Co2348 Co    0.43794   0.64482   0.76083   0.00000  Uiso   1.00
Co2349 Co    0.43794   0.35417   0.23807   0.00000  Uiso   1.00
Co2350 Co    0.41735   0.78799   0.55636   0.00000  Uiso   1.00
Co2351 Co    0.52029   0.23118   0.35511   0.00000  Uiso   1.00
Co2352 Co    0.64382   0.72663   0.64399   0.00000  Uiso   1.00
Co2353 Co    0.52029   0.27208   0.29668   0.00000  Uiso   1.00
Co2354 Co    0.41735   0.21099   0.44255   0.00000  Uiso   1.00
Co2355 Co    0.64382   0.76727   0.52733   0.00000  Uiso   1.00
Co2356 Co    0.54088   0.25163   0.32589   0.00000  Uiso   1.00
Co2357 Co    0.47911   0.23118   0.35511   0.00000  Uiso   1.00
Co2358 Co    0.54088   0.41579   0.20868   0.00000  Uiso   1.00
Co2359 Co    0.35558   0.72663   0.64399   0.00000  Uiso   1.00
Co2360 Co    0.68500   0.27262   0.41315   0.00000  Uiso   1.00
Co2361 Co    0.31441   0.27262   0.41315   0.00000  Uiso   1.00
Co2362 Co    0.35559   0.27235   0.35492   0.00000  Uiso   1.00
Co2363 Co    0.45852   0.25163   0.32589   0.00000  Uiso   1.00
Co2364 Co    0.56147   0.64482   0.76083   0.00000  Uiso   1.00
Co2365 Co    0.41735   0.53932   0.20810   0.00000  Uiso   1.00
Co2366 Co    0.27323   0.35604   0.64570   0.00000  Uiso   1.00
Co2367 Co    0.54088   0.58319   0.79023   0.00000  Uiso   1.00
Co2368 Co    0.64382   0.23171   0.47157   0.00000  Uiso   1.00
Co2369 Co    0.35558   0.43894   0.76178   0.00000  Uiso   1.00
Co2370 Co    0.47911   0.27208   0.29668   0.00000  Uiso   1.00
Co2371 Co    0.76735   0.35524   0.47100   0.00000  Uiso   1.00
Co2372 Co    0.35558   0.27369   0.64607   0.00000  Uiso   1.00
Co2373 Co    0.43794   0.35659   0.76216   0.00000  Uiso   1.00
Co2374 Co    0.25264   0.45751   0.32495   0.00000  Uiso   1.00
Co2375 Co    0.64382   0.76701   0.46910   0.00000  Uiso   1.00
Co2376 Co    0.64382   0.27235   0.35492   0.00000  Uiso   1.00
Co2377 Co    0.68500   0.27342   0.58785   0.00000  Uiso   1.00
Co2378 Co    0.45853   0.58319   0.79023   0.00000  Uiso   1.00
Co2379 Co    0.27323   0.47797   0.29573   0.00000  Uiso   1.00
Co2380 Co    0.27323   0.64428   0.64437   0.00000  Uiso   1.00
Co2381 Co    0.76735   0.64375   0.52791   0.00000  Uiso   1.00
Co2382 Co    0.43794   0.64240   0.23674   0.00000  Uiso   1.00
Co2383 Co    0.35558   0.23171   0.47157   0.00000  Uiso   1.00
Co2384 Co    0.58206   0.78800   0.55635   0.00000  Uiso   1.00
Co2385 Co    0.64382   0.43652   0.23769   0.00000  Uiso   1.00
Co2386 Co    0.58206   0.21099   0.44255   0.00000  Uiso   1.00
Co2387 Co    0.58205   0.78746   0.43989   0.00000  Uiso   1.00
Co2388 Co    0.74676   0.45751   0.32494   0.00000  Uiso   1.00
Co2389 Co    0.23205   0.35524   0.47100   0.00000  Uiso   1.00
Co2390 Co    0.27323   0.31380   0.41296   0.00000  Uiso   1.00
Co2391 Co    0.52030   0.76647   0.35264   0.00000  Uiso   1.00
Co2392 Co    0.21146   0.58212   0.55730   0.00000  Uiso   1.00
Co2393 Co    0.56147   0.35417   0.23807   0.00000  Uiso   1.00
Co2394 Co    0.58205   0.45697   0.20848   0.00000  Uiso   1.00
Co2395 Co    0.35558   0.76701   0.46910   0.00000  Uiso   1.00
Co2396 Co    0.21146   0.41687   0.44160   0.00000  Uiso   1.00
Co2397 Co    0.72618   0.52102   0.70317   0.00000  Uiso   1.00
Co2398 Co    0.58206   0.54201   0.79043   0.00000  Uiso   1.00
Co2399 Co    0.45853   0.41580   0.20867   0.00000  Uiso   1.00
Co2400 Co    0.78794   0.58158   0.44084   0.00000  Uiso   1.00
Co2401 Co    0.47912   0.72503   0.29459   0.00000  Uiso   1.00
Co2402 Co    0.27323   0.68439   0.41125   0.00000  Uiso   1.00
Co2403 Co    0.74677   0.54148   0.67396   0.00000  Uiso   1.00
Co2404 Co    0.35558   0.43652   0.23769   0.00000  Uiso   1.00
Co2405 Co    0.58206   0.45966   0.79080   0.00000  Uiso   1.00
Co2406 Co    0.41734   0.54201   0.79043   0.00000  Uiso   1.00
Co2407 Co    0.68500   0.72637   0.58576   0.00000  Uiso   1.00
Co2408 Co    0.27323   0.68519   0.58594   0.00000  Uiso   1.00
Co2409 Co    0.27323   0.51914   0.29554   0.00000  Uiso   1.00
Co2410 Co    0.72618   0.47797   0.29573   0.00000  Uiso   1.00
Co2411 Co    0.58206   0.21152   0.55902   0.00000  Uiso   1.00
Co2412 Co    0.35558   0.76727   0.52733   0.00000  Uiso   1.00
Co2413 Co    0.23205   0.64348   0.46967   0.00000  Uiso   1.00
Co2414 Co    0.45852   0.74575   0.32362   0.00000  Uiso   1.00
Co2415 Co    0.21146   0.41740   0.55807   0.00000  Uiso   1.00
Co2416 Co    0.23205   0.47823   0.35396   0.00000  Uiso   1.00
Co2417 Co    0.31440   0.72637   0.58576   0.00000  Uiso   1.00
Co2418 Co    0.41734   0.21152   0.55902   0.00000  Uiso   1.00
Co2419 Co    0.27323   0.35470   0.35453   0.00000  Uiso   1.00
Co2420 Co    0.45852   0.58050   0.20791   0.00000  Uiso   1.00
Co2421 Co    0.35558   0.56246   0.76122   0.00000  Uiso   1.00
Co2422 Co    0.52029   0.23251   0.64627   0.00000  Uiso   1.00
Co2423 Co    0.72618   0.64428   0.64437   0.00000  Uiso   1.00
Co2424 Co    0.41735   0.78746   0.43989   0.00000  Uiso   1.00
Co2425 Co    0.64383   0.43894   0.76179   0.00000  Uiso   1.00
Co2426 Co    0.27323   0.52102   0.70318   0.00000  Uiso   1.00
Co2427 Co    0.76736   0.51941   0.35378   0.00000  Uiso   1.00
Co2428 Co    0.52029   0.72503   0.29459   0.00000  Uiso   1.00
Co2429 Co    0.35558   0.23198   0.52981   0.00000  Uiso   1.00
Co2430 Co    0.64383   0.27369   0.64608   0.00000  Uiso   1.00
Co2431 Co    0.72618   0.31379   0.41296   0.00000  Uiso   1.00
Co2432 Co    0.41735   0.45697   0.20848   0.00000  Uiso   1.00
Co2433 Co    0.47911   0.76647   0.35263   0.00000  Uiso   1.00
Co2434 Co    0.64383   0.56246   0.76122   0.00000  Uiso   1.00
Co2435 Co    0.76736   0.64348   0.46967   0.00000  Uiso   1.00
Co2436 Co    0.58206   0.53933   0.20810   0.00000  Uiso   1.00
Co2437 Co    0.56147   0.35658   0.76217   0.00000  Uiso   1.00
Co2438 Co    0.68500   0.72556   0.41106   0.00000  Uiso   1.00
Co2439 Co    0.76736   0.52075   0.64495   0.00000  Uiso   1.00
Co2440 Co    0.35558   0.72529   0.35283   0.00000  Uiso   1.00
Co2441 Co    0.76736   0.47823   0.35396   0.00000  Uiso   1.00
Co2442 Co    0.23205   0.47958   0.64513   0.00000  Uiso   1.00
Co2443 Co    0.64383   0.23198   0.52981   0.00000  Uiso   1.00
Co2444 Co    0.76736   0.35550   0.52924   0.00000  Uiso   1.00
Co2445 Co    0.35558   0.56005   0.23712   0.00000  Uiso   1.00
Co2446 Co    0.72618   0.47984   0.70337   0.00000  Uiso   1.00
Co2447 Co    0.47911   0.23251   0.64627   0.00000  Uiso   1.00
Co2448 Co    0.72618   0.68519   0.58594   0.00000  Uiso   1.00
Co2449 Co    0.23205   0.52075   0.64495   0.00000  Uiso   1.00
Co2450 Co    0.54088   0.74575   0.32362   0.00000  Uiso   1.00
Co2451 Co    0.74677   0.53986   0.32457   0.00000  Uiso   1.00
Co2452 Co    0.27323   0.64294   0.35321   0.00000  Uiso   1.00
Co2453 Co    0.31440   0.72556   0.41106   0.00000  Uiso   1.00
Co2454 Co    0.72618   0.31460   0.58766   0.00000  Uiso   1.00
Co2455 Co    0.23205   0.35550   0.52924   0.00000  Uiso   1.00
Co2456 Co    0.54088   0.58050   0.20791   0.00000  Uiso   1.00
Co2457 Co    0.56147   0.64240   0.23674   0.00000  Uiso   1.00
Co2458 Co    0.72618   0.35470   0.35453   0.00000  Uiso   1.00
Co2459 Co    0.64382   0.72529   0.35283   0.00000  Uiso   1.00
Co2460 Co    0.21146   0.58158   0.44084   0.00000  Uiso   1.00
Co2461 Co    0.23205   0.51941   0.35378   0.00000  Uiso   1.00
Co2462 Co    0.72618   0.68439   0.41125   0.00000  Uiso   1.00
Co2463 Co    0.23205   0.64375   0.52791   0.00000  Uiso   1.00
Co2464 Co    0.64382   0.56005   0.23712   0.00000  Uiso   1.00
Co2465 Co    0.72618   0.64294   0.35321   0.00000  Uiso   1.00
Co2466 Co    0.25264   0.53987   0.32456   0.00000  Uiso   1.00
Co2467 Co    0.52029   0.27395   0.70432   0.00000  Uiso   1.00
Co2468 Co    0.72618   0.51914   0.29554   0.00000  Uiso   1.00
Co2469 Co    0.25264   0.54148   0.67396   0.00000  Uiso   1.00
Co2470 Co    0.25264   0.45912   0.67434   0.00000  Uiso   1.00
Co2471 Co    0.54088   0.41848   0.79100   0.00000  Uiso   1.00
Co2472 Co    0.78795   0.58212   0.55730   0.00000  Uiso   1.00
Co2473 Co    0.52029   0.72691   0.70222   0.00000  Uiso   1.00
Co2474 Co    0.54088   0.25323   0.67529   0.00000  Uiso   1.00
Co2475 Co    0.52029   0.76782   0.64380   0.00000  Uiso   1.00
Co2476 Co    0.78795   0.41687   0.44160   0.00000  Uiso   1.00
Co2477 Co    0.31440   0.27342   0.58785   0.00000  Uiso   1.00
Co2478 Co    0.41735   0.45966   0.79081   0.00000  Uiso   1.00
Co2479 Co    0.54088   0.74737   0.67301   0.00000  Uiso   1.00
Co2480 Co    0.47911   0.72691   0.70222   0.00000  Uiso   1.00
Co2481 Co    0.45852   0.74737   0.67301   0.00000  Uiso   1.00
Co2482 Co    0.78795   0.41740   0.55807   0.00000  Uiso   1.00
Co2483 Co    0.27322   0.47984   0.70337   0.00000  Uiso   1.00
Co2484 Co    0.47911   0.27395   0.70432   0.00000  Uiso   1.00
Co2485 Co    0.74677   0.45912   0.67434   0.00000  Uiso   1.00
Co2486 Co    0.27322   0.31460   0.58766   0.00000  Uiso   1.00
Co2487 Co    0.47911   0.76782   0.64380   0.00000  Uiso   1.00
Co2488 Co    0.72618   0.35604   0.64570   0.00000  Uiso   1.00
Co2489 Co    0.76736   0.47958   0.64513   0.00000  Uiso   1.00
Co2490 Co    0.45853   0.41848   0.79100   0.00000  Uiso   1.00
Co2491 Co    0.45853   0.25323   0.67529   0.00000  Uiso   1.00
Co2492 Co    0.52029   0.80818   0.46891   0.00000  Uiso   1.00
Co2493 Co    0.37617   0.66527   0.73162   0.00000  Uiso   1.00
Co2494 Co    0.31441   0.64455   0.70260   0.00000  Uiso   1.00
Co2495 Co    0.56147   0.23118   0.35511   0.00000  Uiso   1.00
Co2496 Co    0.56146   0.27208   0.29668   0.00000  Uiso   1.00
Co2497 Co    0.62323   0.66527   0.73162   0.00000  Uiso   1.00
Co2498 Co    0.64382   0.68573   0.70240   0.00000  Uiso   1.00
Co2499 Co    0.19088   0.47876   0.47043   0.00000  Uiso   1.00
Co2500 Co    0.66441   0.37489   0.26710   0.00000  Uiso   1.00
Co2501 Co    0.49970   0.21072   0.38432   0.00000  Uiso   1.00
Co2502 Co    0.64382   0.31513   0.70412   0.00000  Uiso   1.00
Co2503 Co    0.49970   0.29254   0.26747   0.00000  Uiso   1.00
Co2504 Co    0.72618   0.56220   0.70298   0.00000  Uiso   1.00
Co2505 Co    0.33500   0.62410   0.73181   0.00000  Uiso   1.00
Co2506 Co    0.47912   0.19054   0.47176   0.00000  Uiso   1.00
Co2507 Co    0.23206   0.56059   0.35358   0.00000  Uiso   1.00
Co2508 Co    0.27323   0.43867   0.70355   0.00000  Uiso   1.00
Co2509 Co    0.52029   0.19080   0.53000   0.00000  Uiso   1.00
Co2510 Co    0.43793   0.23118   0.35511   0.00000  Uiso   1.00
Co2511 Co    0.43794   0.27208   0.29668   0.00000  Uiso   1.00
Co2512 Co    0.31441   0.35443   0.29631   0.00000  Uiso   1.00
Co2513 Co    0.76735   0.43705   0.35416   0.00000  Uiso   1.00
Co2514 Co    0.29382   0.49841   0.26653   0.00000  Uiso   1.00
Co2515 Co    0.47912   0.80845   0.52714   0.00000  Uiso   1.00
Co2516 Co    0.37617   0.33587   0.73314   0.00000  Uiso   1.00
Co2517 Co    0.33500   0.37489   0.26709   0.00000  Uiso   1.00
Co2518 Co    0.23205   0.43705   0.35416   0.00000  Uiso   1.00
Co2519 Co    0.43794   0.27396   0.70431   0.00000  Uiso   1.00
Co2520 Co    0.47911   0.19080   0.53000   0.00000  Uiso   1.00
Co2521 Co    0.37617   0.66313   0.26577   0.00000  Uiso   1.00
Co2522 Co    0.66441   0.62410   0.73181   0.00000  Uiso   1.00
Co2523 Co    0.33500   0.37704   0.73295   0.00000  Uiso   1.00
Co2524 Co    0.66441   0.37704   0.73295   0.00000  Uiso   1.00
Co2525 Co    0.31440   0.35632   0.70393   0.00000  Uiso   1.00
Co2526 Co    0.43794   0.72503   0.29459   0.00000  Uiso   1.00
Co2527 Co    0.52029   0.80845   0.52714   0.00000  Uiso   1.00
Co2528 Co    0.35558   0.31513   0.70412   0.00000  Uiso   1.00
Co2529 Co    0.49970   0.78719   0.38166   0.00000  Uiso   1.00
Co2530 Co    0.68500   0.64455   0.70260   0.00000  Uiso   1.00
Co2531 Co    0.35558   0.68572   0.70241   0.00000  Uiso   1.00
Co2532 Co    0.47912   0.80818   0.46891   0.00000  Uiso   1.00
Co2533 Co    0.64383   0.31326   0.29650   0.00000  Uiso   1.00
Co2534 Co    0.33500   0.62195   0.26595   0.00000  Uiso   1.00
Co2535 Co    0.76735   0.56193   0.64475   0.00000  Uiso   1.00
Co2536 Co    0.76736   0.43840   0.64532   0.00000  Uiso   1.00
Co2537 Co    0.56147   0.23251   0.64627   0.00000  Uiso   1.00
Co2538 Co    0.62324   0.33371   0.26729   0.00000  Uiso   1.00
Co2539 Co    0.70559   0.50057   0.73238   0.00000  Uiso   1.00
Co2540 Co    0.80853   0.47877   0.47042   0.00000  Uiso   1.00
Co2541 Co    0.19087   0.47904   0.52866   0.00000  Uiso   1.00
Co2542 Co    0.72618   0.43679   0.29593   0.00000  Uiso   1.00
Co2543 Co    0.35558   0.31326   0.29650   0.00000  Uiso   1.00
Co2544 Co    0.80853   0.51995   0.47025   0.00000  Uiso   1.00
Co2545 Co    0.78794   0.49895   0.38299   0.00000  Uiso   1.00
Co2546 Co    0.52029   0.19053   0.47177   0.00000  Uiso   1.00
Co2547 Co    0.37617   0.33372   0.26728   0.00000  Uiso   1.00
Co2548 Co    0.68500   0.35444   0.29630   0.00000  Uiso   1.00
Co2549 Co    0.21146   0.50003   0.61592   0.00000  Uiso   1.00
Co2550 Co    0.56147   0.76647   0.35264   0.00000  Uiso   1.00
Co2551 Co    0.31441   0.64267   0.29498   0.00000  Uiso   1.00
Co2552 Co    0.27323   0.56220   0.70298   0.00000  Uiso   1.00
Co2553 Co    0.76735   0.56059   0.35358   0.00000  Uiso   1.00
Co2554 Co    0.43793   0.76647   0.35264   0.00000  Uiso   1.00
Co2555 Co    0.80853   0.52022   0.52848   0.00000  Uiso   1.00
Co2556 Co    0.70559   0.49842   0.26652   0.00000  Uiso   1.00
Co2557 Co    0.19087   0.51995   0.47025   0.00000  Uiso   1.00
Co2558 Co    0.62324   0.33586   0.73315   0.00000  Uiso   1.00
Co2559 Co    0.19087   0.52022   0.52848   0.00000  Uiso   1.00
Co2560 Co    0.49970   0.21179   0.61725   0.00000  Uiso   1.00
Co2561 Co    0.56147   0.27395   0.70432   0.00000  Uiso   1.00
Co2562 Co    0.80854   0.47904   0.52866   0.00000  Uiso   1.00
Co2563 Co    0.27323   0.43679   0.29592   0.00000  Uiso   1.00
Co2564 Co    0.27323   0.56031   0.29535   0.00000  Uiso   1.00
Co2565 Co    0.56147   0.72503   0.29459   0.00000  Uiso   1.00
Co2566 Co    0.29382   0.50056   0.73239   0.00000  Uiso   1.00
Co2567 Co    0.23205   0.56193   0.64475   0.00000  Uiso   1.00
Co2568 Co    0.49970   0.29468   0.73333   0.00000  Uiso   1.00
Co2569 Co    0.21146   0.49895   0.38299   0.00000  Uiso   1.00
Co2570 Co    0.56147   0.72691   0.70222   0.00000  Uiso   1.00
Co2571 Co    0.68500   0.64268   0.29497   0.00000  Uiso   1.00
Co2572 Co    0.56146   0.76782   0.64380   0.00000  Uiso   1.00
Co2573 Co    0.72618   0.56031   0.29535   0.00000  Uiso   1.00
Co2574 Co    0.68500   0.35632   0.70394   0.00000  Uiso   1.00
Co2575 Co    0.49970   0.70431   0.26557   0.00000  Uiso   1.00
Co2576 Co    0.43793   0.23251   0.64627   0.00000  Uiso   1.00
Co2577 Co    0.64383   0.68385   0.29478   0.00000  Uiso   1.00
Co2578 Co    0.49970   0.70646   0.73143   0.00000  Uiso   1.00
Co2579 Co    0.62323   0.66313   0.26576   0.00000  Uiso   1.00
Co2580 Co    0.66441   0.62195   0.26595   0.00000  Uiso   1.00
Co2581 Co    0.49970   0.78827   0.61459   0.00000  Uiso   1.00
Co2582 Co    0.78795   0.50003   0.61592   0.00000  Uiso   1.00
Co2583 Co    0.43793   0.72691   0.70222   0.00000  Uiso   1.00
Co2584 Co    0.43794   0.76782   0.64380   0.00000  Uiso   1.00
Co2585 Co    0.35558   0.68385   0.29478   0.00000  Uiso   1.00
Co2586 Co    0.72618   0.43867   0.70355   0.00000  Uiso   1.00
Co2587 Co    0.23205   0.43840   0.64532   0.00000  Uiso   1.00
Co2588 Co    0.58205   0.25163   0.32589   0.00000  Uiso   1.00
Co2589 Co    0.25265   0.41795   0.67453   0.00000  Uiso   1.00
Co2590 Co    0.54088   0.21072   0.38432   0.00000  Uiso   1.00
Co2591 Co    0.74676   0.58265   0.67377   0.00000  Uiso   1.00
Co2592 Co    0.41735   0.41849   0.79099   0.00000  Uiso   1.00
Co2593 Co    0.54088   0.29254   0.26747   0.00000  Uiso   1.00
Co2594 Co    0.25264   0.58103   0.32438   0.00000  Uiso   1.00
Co2595 Co    0.70559   0.54174   0.73219   0.00000  Uiso   1.00
Co2596 Co    0.41735   0.25324   0.67528   0.00000  Uiso   1.00
Co2597 Co    0.45853   0.29468   0.73333   0.00000  Uiso   1.00
Co2598 Co    0.45852   0.29254   0.26747   0.00000  Uiso   1.00
Co2599 Co    0.62324   0.78773   0.49812   0.00000  Uiso   1.00
Co2600 Co    0.21147   0.54013   0.38280   0.00000  Uiso   1.00
Co2601 Co    0.70559   0.29307   0.38394   0.00000  Uiso   1.00
Co2602 Co    0.41735   0.25163   0.32589   0.00000  Uiso   1.00
Co2603 Co    0.45852   0.21072   0.38432   0.00000  Uiso   1.00
Co2604 Co    0.45853   0.78719   0.38166   0.00000  Uiso   1.00
Co2605 Co    0.58206   0.41579   0.20868   0.00000  Uiso   1.00
Co2606 Co    0.62323   0.21126   0.50079   0.00000  Uiso   1.00
Co2607 Co    0.29382   0.45940   0.73257   0.00000  Uiso   1.00
Co2608 Co    0.29382   0.29415   0.61686   0.00000  Uiso   1.00
Co2609 Co    0.41735   0.41580   0.20867   0.00000  Uiso   1.00
Co2610 Co    0.41735   0.58319   0.79023   0.00000  Uiso   1.00
Co2611 Co    0.78794   0.45886   0.61611   0.00000  Uiso   1.00
Co2612 Co    0.74677   0.41633   0.32514   0.00000  Uiso   1.00
Co2613 Co    0.78794   0.54013   0.38279   0.00000  Uiso   1.00
Co2614 Co    0.25264   0.58265   0.67377   0.00000  Uiso   1.00
Co2615 Co    0.74677   0.41795   0.67453   0.00000  Uiso   1.00
Co2616 Co    0.70559   0.70591   0.61497   0.00000  Uiso   1.00
Co2617 Co    0.37617   0.21126   0.50079   0.00000  Uiso   1.00
Co2618 Co    0.41735   0.74575   0.32362   0.00000  Uiso   1.00
Co2619 Co    0.54088   0.78719   0.38166   0.00000  Uiso   1.00
Co2620 Co    0.41735   0.58050   0.20791   0.00000  Uiso   1.00
Co2621 Co    0.29382   0.29307   0.38394   0.00000  Uiso   1.00
Co2622 Co    0.29382   0.70484   0.38204   0.00000  Uiso   1.00
Co2623 Co    0.58206   0.58318   0.79024   0.00000  Uiso   1.00
Co2624 Co    0.29382   0.53959   0.26633   0.00000  Uiso   1.00
Co2625 Co    0.37617   0.78773   0.49812   0.00000  Uiso   1.00
Co2626 Co    0.21146   0.62303   0.49888   0.00000  Uiso   1.00
Co2627 Co    0.70559   0.45724   0.26671   0.00000  Uiso   1.00
Co2628 Co    0.54088   0.21179   0.61725   0.00000  Uiso   1.00
Co2629 Co    0.78795   0.62302   0.49889   0.00000  Uiso   1.00
Co2630 Co    0.21146   0.45778   0.38317   0.00000  Uiso   1.00
Co2631 Co    0.29381   0.70591   0.61497   0.00000  Uiso   1.00
Co2632 Co    0.21146   0.54121   0.61573   0.00000  Uiso   1.00
Co2633 Co    0.54088   0.29468   0.73333   0.00000  Uiso   1.00
Co2634 Co    0.78795   0.45777   0.38318   0.00000  Uiso   1.00
Co2635 Co    0.54089   0.70430   0.26558   0.00000  Uiso   1.00
Co2636 Co    0.21146   0.37596   0.50002   0.00000  Uiso   1.00
Co2637 Co    0.29382   0.54174   0.73219   0.00000  Uiso   1.00
Co2638 Co    0.70559   0.70484   0.38204   0.00000  Uiso   1.00
Co2639 Co    0.78795   0.54120   0.61573   0.00000  Uiso   1.00
Co2640 Co    0.29381   0.45724   0.26671   0.00000  Uiso   1.00
Co2641 Co    0.70559   0.53959   0.26633   0.00000  Uiso   1.00
Co2642 Co    0.74677   0.58104   0.32437   0.00000  Uiso   1.00
Co2643 Co    0.78795   0.37596   0.50003   0.00000  Uiso   1.00
Co2644 Co    0.25264   0.41633   0.32514   0.00000  Uiso   1.00
Co2645 Co    0.58206   0.41848   0.79100   0.00000  Uiso   1.00
Co2646 Co    0.70559   0.45939   0.73258   0.00000  Uiso   1.00
Co2647 Co    0.45852   0.70431   0.26557   0.00000  Uiso   1.00
Co2648 Co    0.45853   0.21179   0.61725   0.00000  Uiso   1.00
Co2649 Co    0.58205   0.74737   0.67301   0.00000  Uiso   1.00
Co2650 Co    0.58206   0.25323   0.67529   0.00000  Uiso   1.00
Co2651 Co    0.70559   0.29414   0.61687   0.00000  Uiso   1.00
Co2652 Co    0.54088   0.70646   0.73143   0.00000  Uiso   1.00
Co2653 Co    0.58206   0.74575   0.32362   0.00000  Uiso   1.00
Co2654 Co    0.58206   0.58050   0.20791   0.00000  Uiso   1.00
Co2655 Co    0.54088   0.78827   0.61459   0.00000  Uiso   1.00
Co2656 Co    0.45852   0.78827   0.61459   0.00000  Uiso   1.00
Co2657 Co    0.41735   0.74737   0.67301   0.00000  Uiso   1.00
Co2658 Co    0.45852   0.70646   0.73143   0.00000  Uiso   1.00
Co2659 Co    0.21146   0.45886   0.61611   0.00000  Uiso   1.00
Co2660 Co    0.49970   0.62436   0.79005   0.00000  Uiso   1.00
Co2661 Co    0.35559   0.23144   0.41334   0.00000  Uiso   1.00
Co2662 Co    0.66441   0.70618   0.67320   0.00000  Uiso   1.00
Co2663 Co    0.62323   0.50084   0.79062   0.00000  Uiso   1.00
Co2664 Co    0.39676   0.64482   0.76083   0.00000  Uiso   1.00
Co2665 Co    0.60264   0.64482   0.76083   0.00000  Uiso   1.00
Co2666 Co    0.56147   0.80818   0.46891   0.00000  Uiso   1.00
Co2667 Co    0.35559   0.76754   0.58556   0.00000  Uiso   1.00
Co2668 Co    0.56147   0.19080   0.53000   0.00000  Uiso   1.00
Co2669 Co    0.19088   0.56139   0.52829   0.00000  Uiso   1.00
Co2670 Co    0.64382   0.39776   0.76198   0.00000  Uiso   1.00
Co2671 Co    0.43794   0.80845   0.52714   0.00000  Uiso   1.00
Co2672 Co    0.39676   0.64239   0.23674   0.00000  Uiso   1.00
Co2673 Co    0.35558   0.39534   0.23789   0.00000  Uiso   1.00
Co2674 Co    0.23206   0.64321   0.41144   0.00000  Uiso   1.00
Co2675 Co    0.43794   0.19054   0.47176   0.00000  Uiso   1.00
Co2676 Co    0.64382   0.39534   0.23789   0.00000  Uiso   1.00
Co2677 Co    0.29382   0.33398   0.32552   0.00000  Uiso   1.00
Co2678 Co    0.33499   0.70618   0.67320   0.00000  Uiso   1.00
Co2679 Co    0.70559   0.66500   0.67339   0.00000  Uiso   1.00
Co2680 Co    0.35559   0.60364   0.76102   0.00000  Uiso   1.00
Co2681 Co    0.64382   0.76754   0.58556   0.00000  Uiso   1.00
Co2682 Co    0.64383   0.23144   0.41334   0.00000  Uiso   1.00
Co2683 Co    0.49971   0.37462   0.20886   0.00000  Uiso   1.00
Co2684 Co    0.29382   0.33559   0.67491   0.00000  Uiso   1.00
Co2685 Co    0.35559   0.76674   0.41087   0.00000  Uiso   1.00
Co2686 Co    0.35558   0.39776   0.76198   0.00000  Uiso   1.00
Co2687 Co    0.64382   0.60364   0.76102   0.00000  Uiso   1.00
Co2688 Co    0.66441   0.29280   0.32571   0.00000  Uiso   1.00
Co2689 Co    0.33500   0.29441   0.67510   0.00000  Uiso   1.00
Co2690 Co    0.66441   0.29441   0.67510   0.00000  Uiso   1.00
Co2691 Co    0.80853   0.56113   0.47005   0.00000  Uiso   1.00
Co2692 Co    0.39676   0.35659   0.76216   0.00000  Uiso   1.00
Co2693 Co    0.76735   0.64402   0.58613   0.00000  Uiso   1.00
Co2694 Co    0.19088   0.43786   0.52885   0.00000  Uiso   1.00
Co2695 Co    0.29382   0.66500   0.67339   0.00000  Uiso   1.00
Co2696 Co    0.43794   0.19080   0.53000   0.00000  Uiso   1.00
Co2697 Co    0.70559   0.33398   0.32551   0.00000  Uiso   1.00
Co2698 Co    0.33500   0.70457   0.32380   0.00000  Uiso   1.00
Co2699 Co    0.56147   0.80845   0.52714   0.00000  Uiso   1.00
Co2700 Co    0.56147   0.19053   0.47177   0.00000  Uiso   1.00
Co2701 Co    0.23205   0.64401   0.58614   0.00000  Uiso   1.00
Co2702 Co    0.76736   0.35578   0.58746   0.00000  Uiso   1.00
Co2703 Co    0.39676   0.35417   0.23807   0.00000  Uiso   1.00
Co2704 Co    0.80853   0.56140   0.52828   0.00000  Uiso   1.00
Co2705 Co    0.33499   0.29280   0.32571   0.00000  Uiso   1.00
Co2706 Co    0.60265   0.35417   0.23807   0.00000  Uiso   1.00
Co2707 Co    0.60265   0.35659   0.76216   0.00000  Uiso   1.00
Co2708 Co    0.76736   0.35497   0.41277   0.00000  Uiso   1.00
Co2709 Co    0.76735   0.64321   0.41144   0.00000  Uiso   1.00
Co2710 Co    0.64382   0.76674   0.41087   0.00000  Uiso   1.00
Co2711 Co    0.23205   0.35497   0.41277   0.00000  Uiso   1.00
Co2712 Co    0.62324   0.49815   0.20829   0.00000  Uiso   1.00
Co2713 Co    0.80853   0.43759   0.47062   0.00000  Uiso   1.00
Co2714 Co    0.43794   0.80819   0.46890   0.00000  Uiso   1.00
Co2715 Co    0.64382   0.23224   0.58804   0.00000  Uiso   1.00
Co2716 Co    0.19087   0.43759   0.47062   0.00000  Uiso   1.00
Co2717 Co    0.29382   0.66340   0.32399   0.00000  Uiso   1.00
Co2718 Co    0.49970   0.37731   0.79119   0.00000  Uiso   1.00
Co2719 Co    0.37617   0.50084   0.79062   0.00000  Uiso   1.00
Co2720 Co    0.35558   0.23224   0.58804   0.00000  Uiso   1.00
Co2721 Co    0.19087   0.56113   0.47005   0.00000  Uiso   1.00
Co2722 Co    0.37617   0.49815   0.20828   0.00000  Uiso   1.00
Co2723 Co    0.49970   0.62168   0.20771   0.00000  Uiso   1.00
Co2724 Co    0.60265   0.64240   0.23674   0.00000  Uiso   1.00
Co2725 Co    0.66441   0.70457   0.32380   0.00000  Uiso   1.00
Co2726 Co    0.64383   0.60123   0.23692   0.00000  Uiso   1.00
Co2727 Co    0.70559   0.66340   0.32399   0.00000  Uiso   1.00
Co2728 Co    0.80854   0.43786   0.52885   0.00000  Uiso   1.00
Co2729 Co    0.35558   0.60123   0.23692   0.00000  Uiso   1.00
Co2730 Co    0.70559   0.33558   0.67492   0.00000  Uiso   1.00
Co2731 Co    0.23205   0.35578   0.58746   0.00000  Uiso   1.00
Co2732 Co    0.37617   0.78799   0.55636   0.00000  Uiso   1.00
Co2733 Co    0.45853   0.62436   0.79005   0.00000  Uiso   1.00
Co2734 Co    0.25265   0.33532   0.61667   0.00000  Uiso   1.00
Co2735 Co    0.33500   0.74709   0.61478   0.00000  Uiso   1.00
Co2736 Co    0.37618   0.21099   0.44255   0.00000  Uiso   1.00
Co2737 Co    0.25264   0.66366   0.38223   0.00000  Uiso   1.00
Co2738 Co    0.45853   0.37731   0.79119   0.00000  Uiso   1.00
Co2739 Co    0.21147   0.62275   0.44066   0.00000  Uiso   1.00
Co2740 Co    0.45853   0.37462   0.20886   0.00000  Uiso   1.00
Co2741 Co    0.66441   0.74709   0.61477   0.00000  Uiso   1.00
Co2742 Co    0.37618   0.45966   0.79080   0.00000  Uiso   1.00
Co2743 Co    0.33500   0.25297   0.61706   0.00000  Uiso   1.00
Co2744 Co    0.21147   0.37569   0.44179   0.00000  Uiso   1.00
Co2745 Co    0.66441   0.25190   0.38413   0.00000  Uiso   1.00
Co2746 Co    0.33500   0.25189   0.38414   0.00000  Uiso   1.00
Co2747 Co    0.62324   0.21099   0.44255   0.00000  Uiso   1.00
Co2748 Co    0.54088   0.62436   0.79005   0.00000  Uiso   1.00
Co2749 Co    0.78794   0.37570   0.44178   0.00000  Uiso   1.00
Co2750 Co    0.62324   0.45966   0.79080   0.00000  Uiso   1.00
Co2751 Co    0.78794   0.62276   0.44065   0.00000  Uiso   1.00
Co2752 Co    0.78794   0.37623   0.55825   0.00000  Uiso   1.00
Co2753 Co    0.62324   0.78800   0.55635   0.00000  Uiso   1.00
Co2754 Co    0.62323   0.78746   0.43989   0.00000  Uiso   1.00
Co2755 Co    0.66441   0.25297   0.61706   0.00000  Uiso   1.00
Co2756 Co    0.74677   0.33532   0.61667   0.00000  Uiso   1.00
Co2757 Co    0.54089   0.37462   0.20886   0.00000  Uiso   1.00
Co2758 Co    0.62323   0.45697   0.20848   0.00000  Uiso   1.00
Co2759 Co    0.37617   0.78746   0.43989   0.00000  Uiso   1.00
Co2760 Co    0.37617   0.45697   0.20848   0.00000  Uiso   1.00
Co2761 Co    0.37618   0.53933   0.20810   0.00000  Uiso   1.00
Co2762 Co    0.25264   0.66473   0.61516   0.00000  Uiso   1.00
Co2763 Co    0.54088   0.37731   0.79119   0.00000  Uiso   1.00
Co2764 Co    0.37617   0.54201   0.79043   0.00000  Uiso   1.00
Co2765 Co    0.54089   0.62167   0.20772   0.00000  Uiso   1.00
Co2766 Co    0.74677   0.66474   0.61516   0.00000  Uiso   1.00
Co2767 Co    0.25264   0.33425   0.38375   0.00000  Uiso   1.00
Co2768 Co    0.37617   0.21152   0.55902   0.00000  Uiso   1.00
Co2769 Co    0.78795   0.62329   0.55712   0.00000  Uiso   1.00
Co2770 Co    0.74677   0.33425   0.38375   0.00000  Uiso   1.00
Co2771 Co    0.74677   0.66367   0.38223   0.00000  Uiso   1.00
Co2772 Co    0.62324   0.54201   0.79043   0.00000  Uiso   1.00
Co2773 Co    0.66442   0.74601   0.38185   0.00000  Uiso   1.00
Co2774 Co    0.62324   0.53933   0.20810   0.00000  Uiso   1.00
Co2775 Co    0.45852   0.62168   0.20771   0.00000  Uiso   1.00
Co2776 Co    0.33499   0.74602   0.38184   0.00000  Uiso   1.00
Co2777 Co    0.62324   0.21152   0.55902   0.00000  Uiso   1.00
Co2778 Co    0.21146   0.62329   0.55712   0.00000  Uiso   1.00
Co2779 Co    0.21146   0.37623   0.55825   0.00000  Uiso   1.00
Co2780 Co    0.60264   0.27208   0.29668   0.00000  Uiso   1.00
Co2781 Co    0.41735   0.78719   0.38166   0.00000  Uiso   1.00
Co2782 Co    0.78794   0.41660   0.38337   0.00000  Uiso   1.00
Co2783 Co    0.52029   0.19027   0.41353   0.00000  Uiso   1.00
Co2784 Co    0.58205   0.29254   0.26747   0.00000  Uiso   1.00
Co2785 Co    0.76735   0.60310   0.64456   0.00000  Uiso   1.00
Pt2786 Pt    0.31441   0.48012   0.76159   0.00000  Uiso   1.00
Co2787 Co    0.27323   0.60149   0.29517   0.00000  Uiso   1.00
Co2788 Co    0.25264   0.70537   0.49851   0.00000  Uiso   1.00
Pt2789 Pt    0.39676   0.72502   0.29460   0.00000  Uiso   1.00
Co2790 Co    0.47911   0.31299   0.23826   0.00000  Uiso   1.00
Co2791 Co    0.52029   0.31299   0.23826   0.00000  Uiso   1.00
Co2792 Co    0.68500   0.52129   0.76141   0.00000  Uiso   1.00
Co2793 Co    0.39676   0.27208   0.29668   0.00000  Uiso   1.00
Co2794 Co    0.27323   0.72583   0.46929   0.00000  Uiso   1.00
Pt2795 Pt    0.27323   0.39750   0.70374   0.00000  Uiso   1.00
Co2796 Co    0.39676   0.23251   0.64627   0.00000  Uiso   1.00
Co2797 Co    0.47911   0.19026   0.41354   0.00000  Uiso   1.00
Co2798 Co    0.80853   0.51968   0.41200   0.00000  Uiso   1.00
Co2799 Co    0.19088   0.51967   0.41201   0.00000  Uiso   1.00
Pt2800 Pt    0.23205   0.39723   0.64551   0.00000  Uiso   1.00
Co2801 Co    0.41735   0.29254   0.26747   0.00000  Uiso   1.00
Co2802 Co    0.39676   0.23118   0.35511   0.00000  Uiso   1.00
Co2803 Co    0.74676   0.70538   0.49850   0.00000  Uiso   1.00
Pt2804 Pt    0.23205   0.60310   0.64456   0.00000  Uiso   1.00
Co2805 Co    0.60264   0.23251   0.64627   0.00000  Uiso   1.00
Co2806 Co    0.31441   0.51887   0.23731   0.00000  Uiso   1.00
Co2807 Co    0.41735   0.29468   0.73333   0.00000  Uiso   1.00
Co2808 Co    0.58206   0.21072   0.38432   0.00000  Uiso   1.00
Co2809 Co    0.41734   0.21072   0.38432   0.00000  Uiso   1.00
Co2810 Co    0.76735   0.39588   0.35435   0.00000  Uiso   1.00
Pt2811 Pt    0.47911   0.80791   0.41068   0.00000  Uiso   1.00
Pt2812 Pt    0.29382   0.41822   0.73277   0.00000  Uiso   1.00
Co2813 Co    0.60265   0.23118   0.35511   0.00000  Uiso   1.00
Co2814 Co    0.47912   0.31541   0.76236   0.00000  Uiso   1.00
Co2815 Co    0.52030   0.51860   0.17908   0.00000  Uiso   1.00
Co2816 Co    0.47911   0.47743   0.17927   0.00000  Uiso   1.00
Pt2817 Pt    0.19088   0.52048   0.58671   0.00000  Uiso   1.00
Co2818 Co    0.21146   0.41660   0.38337   0.00000  Uiso   1.00
Pt2819 Pt    0.52029   0.80791   0.41068   0.00000  Uiso   1.00
Co2820 Co    0.80853   0.47850   0.41220   0.00000  Uiso   1.00
Co2821 Co    0.39676   0.27396   0.70431   0.00000  Uiso   1.00
Co2822 Co    0.80853   0.47931   0.58690   0.00000  Uiso   1.00
Co2823 Co    0.27323   0.72610   0.52752   0.00000  Uiso   1.00
Co2824 Co    0.72618   0.72583   0.46929   0.00000  Uiso   1.00
Co2825 Co    0.21147   0.58131   0.38261   0.00000  Uiso   1.00
Co2826 Co    0.72618   0.72609   0.52753   0.00000  Uiso   1.00
Co2827 Co    0.72618   0.27316   0.52961   0.00000  Uiso   1.00
Co2828 Co    0.29382   0.74655   0.49831   0.00000  Uiso   1.00
Co2829 Co    0.58205   0.29468   0.73333   0.00000  Uiso   1.00
Co2830 Co    0.52029   0.47743   0.17927   0.00000  Uiso   1.00
Co2831 Co    0.23206   0.60177   0.35340   0.00000  Uiso   1.00
Co2832 Co    0.78794   0.58238   0.61554   0.00000  Uiso   1.00
Co2833 Co    0.27323   0.39561   0.29611   0.00000  Uiso   1.00
Co2834 Co    0.72618   0.39750   0.70374   0.00000  Uiso   1.00
Co2835 Co    0.70559   0.74655   0.49831   0.00000  Uiso   1.00
Co2836 Co    0.74677   0.29361   0.50040   0.00000  Uiso   1.00
Co2837 Co    0.58206   0.21179   0.61725   0.00000  Uiso   1.00
Co2838 Co    0.72618   0.39561   0.29612   0.00000  Uiso   1.00
Co2839 Co    0.52029   0.48038   0.81983   0.00000  Uiso   1.00
Co2840 Co    0.29382   0.41607   0.26690   0.00000  Uiso   1.00
Pt2841 Pt    0.27323   0.60338   0.70279   0.00000  Uiso   1.00
Pt2842 Pt    0.70559   0.41607   0.26690   0.00000  Uiso   1.00
Pt2843 Pt    0.39676   0.76647   0.35264   0.00000  Uiso   1.00
Pt2844 Pt    0.68500   0.48011   0.76160   0.00000  Uiso   1.00
Co2845 Co    0.27323   0.27289   0.47138   0.00000  Uiso   1.00
Pt2846 Pt    0.60265   0.27396   0.70431   0.00000  Uiso   1.00
Pt2847 Pt    0.58206   0.78719   0.38166   0.00000  Uiso   1.00
Pt2848 Pt    0.70559   0.58292   0.73201   0.00000  Uiso   1.00
Pt2849 Pt    0.29381   0.58292   0.73201   0.00000  Uiso   1.00
Co2850 Co    0.27323   0.27315   0.52962   0.00000  Uiso   1.00
Co2851 Co    0.52030   0.52156   0.81964   0.00000  Uiso   1.00
Pt2852 Pt    0.72618   0.60338   0.70279   0.00000  Uiso   1.00
Co2853 Co    0.47911   0.48038   0.81983   0.00000  Uiso   1.00
Co2854 Co    0.70559   0.25243   0.50060   0.00000  Uiso   1.00
Co2855 Co    0.47911   0.51861   0.17907   0.00000  Uiso   1.00
Co2856 Co    0.29381   0.25243   0.50060   0.00000  Uiso   1.00
Pt2857 Pt    0.76736   0.39722   0.64552   0.00000  Uiso   1.00
Pt2858 Pt    0.52030   0.19107   0.58823   0.00000  Uiso   1.00
Pt2859 Pt    0.68500   0.47769   0.23750   0.00000  Uiso   1.00
Co2860 Co    0.47912   0.52156   0.81964   0.00000  Uiso   1.00
Pt2861 Pt    0.47911   0.68358   0.23655   0.00000  Uiso   1.00
Co2862 Co    0.72618   0.27289   0.47138   0.00000  Uiso   1.00
Pt2863 Pt    0.78795   0.41768   0.61630   0.00000  Uiso   1.00
Pt2864 Pt    0.41735   0.70431   0.26557   0.00000  Uiso   1.00
Pt2865 Pt    0.60265   0.76647   0.35264   0.00000  Uiso   1.00
Pt2866 Pt    0.21146   0.58238   0.61554   0.00000  Uiso   1.00
Pt2867 Pt    0.47912   0.19107   0.58823   0.00000  Uiso   1.00
Pt2868 Pt    0.31440   0.47769   0.23750   0.00000  Uiso   1.00
Pt2869 Pt    0.68500   0.51887   0.23731   0.00000  Uiso   1.00
Pt2870 Pt    0.23205   0.39588   0.35435   0.00000  Uiso   1.00
Pt2871 Pt    0.52029   0.68358   0.23655   0.00000  Uiso   1.00
Pt2872 Pt    0.78795   0.58131   0.38261   0.00000  Uiso   1.00
Pt2873 Pt    0.29382   0.58077   0.26614   0.00000  Uiso   1.00
Pt2874 Pt    0.60264   0.76782   0.64380   0.00000  Uiso   1.00
Pt2875 Pt    0.31440   0.52129   0.76141   0.00000  Uiso   1.00
Pt2876 Pt    0.58206   0.70431   0.26557   0.00000  Uiso   1.00
Co2877 Co    0.25264   0.29361   0.50040   0.00000  Uiso   1.00
Pt2878 Pt    0.72618   0.60149   0.29516   0.00000  Uiso   1.00
Pt2879 Pt    0.52029   0.68600   0.76064   0.00000  Uiso   1.00
Pt2880 Pt    0.19087   0.47931   0.58690   0.00000  Uiso   1.00
Pt2881 Pt    0.58205   0.78827   0.61459   0.00000  Uiso   1.00
Pt2882 Pt    0.19087   0.47850   0.41220   0.00000  Uiso   1.00
Pt2883 Pt    0.41735   0.21179   0.61725   0.00000  Uiso   1.00
Pt2884 Pt    0.76736   0.60177   0.35340   0.00000  Uiso   1.00
Pt2885 Pt    0.21146   0.41768   0.61631   0.00000  Uiso   1.00
Pt2886 Pt    0.60265   0.72503   0.29459   0.00000  Uiso   1.00
Pt2887 Pt    0.47911   0.80873   0.58538   0.00000  Uiso   1.00
Pt2888 Pt    0.52029   0.80873   0.58538   0.00000  Uiso   1.00
Pt2889 Pt    0.70559   0.58077   0.26614   0.00000  Uiso   1.00
Pt2890 Pt    0.39676   0.76782   0.64380   0.00000  Uiso   1.00
Pt2891 Pt    0.47911   0.68600   0.76065   0.00000  Uiso   1.00
Pt2892 Pt    0.80854   0.52048   0.58671   0.00000  Uiso   1.00
Pt2893 Pt    0.41735   0.78827   0.61459   0.00000  Uiso   1.00
Pt2894 Pt    0.39676   0.72691   0.70222   0.00000  Uiso   1.00
Pt2895 Pt    0.52029   0.31541   0.76236   0.00000  Uiso   1.00
Pt2896 Pt    0.58206   0.70645   0.73144   0.00000  Uiso   1.00
Pt2897 Pt    0.41734   0.70645   0.73144   0.00000  Uiso   1.00
Pt2898 Pt    0.70559   0.41821   0.73277   0.00000  Uiso   1.00
Pt2899 Pt    0.60265   0.72691   0.70222   0.00000  Uiso   1.00
Pt2900 Pt    0.60264   0.80845   0.52715   0.00000  Uiso   1.00
Pt2901 Pt    0.58206   0.37462   0.20886   0.00000  Uiso   1.00
Pt2902 Pt    0.39676   0.80845   0.52715   0.00000  Uiso   1.00
Pt2903 Pt    0.68500   0.72664   0.64398   0.00000  Uiso   1.00
Pt2904 Pt    0.47911   0.43625   0.17946   0.00000  Uiso   1.00
Pt2905 Pt    0.68500   0.23171   0.47157   0.00000  Uiso   1.00
Pt2906 Pt    0.70559   0.74682   0.55655   0.00000  Uiso   1.00
Pt2907 Pt    0.76735   0.68492   0.52772   0.00000  Uiso   1.00
Pt2908 Pt    0.29382   0.74628   0.44009   0.00000  Uiso   1.00
Pt2909 Pt    0.41735   0.62436   0.79005   0.00000  Uiso   1.00
Pt2910 Pt    0.31441   0.72663   0.64399   0.00000  Uiso   1.00
Pt2911 Pt    0.27323   0.68411   0.35302   0.00000  Uiso   1.00
Pt2912 Pt    0.70559   0.25217   0.44236   0.00000  Uiso   1.00
Pt2913 Pt    0.43793   0.31299   0.23826   0.00000  Uiso   1.00
Pt2914 Pt    0.58205   0.62436   0.79005   0.00000  Uiso   1.00
Pt2915 Pt    0.52029   0.43625   0.17946   0.00000  Uiso   1.00
Pt2916 Pt    0.68500   0.76727   0.52733   0.00000  Uiso   1.00
Pt2917 Pt    0.23205   0.68492   0.52772   0.00000  Uiso   1.00
Pt2918 Pt    0.60265   0.80818   0.46891   0.00000  Uiso   1.00
Pt2919 Pt    0.39676   0.19054   0.47176   0.00000  Uiso   1.00
Pt2920 Pt    0.56147   0.31299   0.23826   0.00000  Uiso   1.00
Pt2921 Pt    0.80853   0.60231   0.46986   0.00000  Uiso   1.00
Pt2922 Pt    0.19088   0.60230   0.46987   0.00000  Uiso   1.00
Pt2923 Pt    0.37617   0.25163   0.32589   0.00000  Uiso   1.00
Pt2924 Pt    0.43793   0.80791   0.41068   0.00000  Uiso   1.00
Pt2925 Pt    0.37617   0.41580   0.20867   0.00000  Uiso   1.00
Pt2926 Pt    0.27323   0.31487   0.64589   0.00000  Uiso   1.00
Pt2927 Pt    0.62324   0.25163   0.32590   0.00000  Uiso   1.00
Pt2928 Pt    0.72618   0.31353   0.35472   0.00000  Uiso   1.00
Pt2929 Pt    0.29382   0.25216   0.44236   0.00000  Uiso   1.00
Pt2930 Pt    0.37617   0.41849   0.79099   0.00000  Uiso   1.00
Pt2931 Pt    0.68500   0.27235   0.35492   0.00000  Uiso   1.00
Pt2932 Pt    0.41735   0.37731   0.79119   0.00000  Uiso   1.00
Pt2933 Pt    0.62323   0.41580   0.20867   0.00000  Uiso   1.00
Pt2934 Pt    0.43793   0.47743   0.17927   0.00000  Uiso   1.00
Pt2935 Pt    0.52029   0.56274   0.81944   0.00000  Uiso   1.00
Pt2936 Pt    0.37617   0.25324   0.67528   0.00000  Uiso   1.00
Pt2937 Pt    0.68500   0.76701   0.46910   0.00000  Uiso   1.00
Pt2938 Pt    0.56147   0.19026   0.41354   0.00000  Uiso   1.00
Pt2939 Pt    0.72618   0.68546   0.64418   0.00000  Uiso   1.00
Pt2940 Pt    0.56147   0.48038   0.81983   0.00000  Uiso   1.00
Pt2941 Pt    0.43793   0.19026   0.41354   0.00000  Uiso   1.00
Pt2942 Pt    0.37617   0.74575   0.32362   0.00000  Uiso   1.00
Pt2943 Pt    0.27323   0.31353   0.35473   0.00000  Uiso   1.00
Pt2944 Pt    0.25264   0.37678   0.67472   0.00000  Uiso   1.00
Pt2945 Pt    0.31440   0.43894   0.76178   0.00000  Uiso   1.00
Pt2946 Pt    0.60265   0.19054   0.47176   0.00000  Uiso   1.00
Pt2947 Pt    0.31440   0.76701   0.46910   0.00000  Uiso   1.00
Pt2948 Pt    0.37617   0.58050   0.20791   0.00000  Uiso   1.00
Pt2949 Pt    0.68500   0.43652   0.23769   0.00000  Uiso   1.00
Pt2950 Pt    0.74677   0.70564   0.55674   0.00000  Uiso   1.00
Pt2951 Pt    0.25264   0.62222   0.32419   0.00000  Uiso   1.00
Pt2952 Pt    0.31441   0.23171   0.47157   0.00000  Uiso   1.00
Pt2953 Pt    0.31440   0.27369   0.64607   0.00000  Uiso   1.00
Pt2954 Pt    0.47912   0.56274   0.81944   0.00000  Uiso   1.00
Pt2955 Pt    0.60264   0.19080   0.53000   0.00000  Uiso   1.00
Pt2956 Pt    0.76735   0.31406   0.47119   0.00000  Uiso   1.00
Pt2957 Pt    0.25264   0.62383   0.67358   0.00000  Uiso   1.00
Pt2958 Pt    0.80853   0.39668   0.52904   0.00000  Uiso   1.00
Pt2959 Pt    0.25264   0.70565   0.55673   0.00000  Uiso   1.00
Pt2960 Pt    0.62323   0.58318   0.79024   0.00000  Uiso   1.00
Pt2961 Pt    0.31440   0.43652   0.23769   0.00000  Uiso   1.00
Pt2962 Pt    0.37617   0.58318   0.79024   0.00000  Uiso   1.00
Pt2963 Pt    0.43794   0.31541   0.76236   0.00000  Uiso   1.00
Pt2964 Pt    0.19088   0.56086   0.41182   0.00000  Uiso   1.00
Pt2965 Pt    0.74677   0.37515   0.32533   0.00000  Uiso   1.00
Pt2966 Pt    0.58205   0.37731   0.79119   0.00000  Uiso   1.00
Pt2967 Pt    0.70559   0.25270   0.55882   0.00000  Uiso   1.00
Pt2968 Pt    0.56147   0.80791   0.41068   0.00000  Uiso   1.00
Pt2969 Pt    0.47912   0.55978   0.17889   0.00000  Uiso   1.00
Pt2970 Pt    0.25264   0.29334   0.44217   0.00000  Uiso   1.00
Pt2971 Pt    0.25264   0.37516   0.32532   0.00000  Uiso   1.00
Pt2972 Pt    0.72618   0.31487   0.64589   0.00000  Uiso   1.00
Pt2973 Pt    0.39676   0.19080   0.53000   0.00000  Uiso   1.00
Pt2974 Pt    0.41735   0.37463   0.20886   0.00000  Uiso   1.00
Pt2975 Pt    0.19087   0.56166   0.58652   0.00000  Uiso   1.00
Pt2976 Pt    0.56147   0.47743   0.17927   0.00000  Uiso   1.00
Pt2977 Pt    0.80853   0.60257   0.52810   0.00000  Uiso   1.00
Pt2978 Pt    0.19087   0.39642   0.47081   0.00000  Uiso   1.00
Pt2979 Pt    0.56147   0.51860   0.17908   0.00000  Uiso   1.00
Pt2980 Pt    0.43793   0.52156   0.81964   0.00000  Uiso   1.00
Pt2981 Pt    0.29382   0.74682   0.55655   0.00000  Uiso   1.00
Pt2982 Pt    0.56147   0.52156   0.81964   0.00000  Uiso   1.00
Pt2983 Pt    0.70559   0.74629   0.44008   0.00000  Uiso   1.00
Pt2984 Pt    0.43794   0.68358   0.23655   0.00000  Uiso   1.00
Pt2985 Pt    0.74677   0.62382   0.67359   0.00000  Uiso   1.00
Pt2986 Pt    0.80853   0.43732   0.41239   0.00000  Uiso   1.00
Pt2987 Pt    0.76736   0.68465   0.46948   0.00000  Uiso   1.00
Pt2988 Pt    0.31441   0.72529   0.35283   0.00000  Uiso   1.00
Pt2989 Pt    0.31441   0.76728   0.52733   0.00000  Uiso   1.00
Pt2990 Pt    0.43793   0.51860   0.17908   0.00000  Uiso   1.00
Pt2991 Pt    0.43793   0.19107   0.58823   0.00000  Uiso   1.00
Pt2992 Pt    0.31440   0.27235   0.35492   0.00000  Uiso   1.00
Pt2993 Pt    0.31441   0.56005   0.23712   0.00000  Uiso   1.00
Pt2994 Pt    0.56147   0.19107   0.58823   0.00000  Uiso   1.00
Pt2995 Pt    0.39676   0.80819   0.46890   0.00000  Uiso   1.00
Pt2996 Pt    0.68500   0.56246   0.76122   0.00000  Uiso   1.00
Pt2997 Pt    0.74677   0.29334   0.44218   0.00000  Uiso   1.00
Pt2998 Pt    0.52029   0.55978   0.17889   0.00000  Uiso   1.00
Pt2999 Pt    0.80853   0.43813   0.58709   0.00000  Uiso   1.00
Pt3000 Pt    0.68500   0.23198   0.52981   0.00000  Uiso   1.00
Pt3001 Pt    0.74677   0.70511   0.44027   0.00000  Uiso   1.00
Pt3002 Pt    0.74677   0.37677   0.67473   0.00000  Uiso   1.00
Pt3003 Pt    0.19087   0.60257   0.52810   0.00000  Uiso   1.00
Pt3004 Pt    0.31440   0.56246   0.76122   0.00000  Uiso   1.00
Pt3005 Pt    0.23205   0.31433   0.52943   0.00000  Uiso   1.00
Pt3006 Pt    0.62324   0.41848   0.79100   0.00000  Uiso   1.00
Pt3007 Pt    0.80854   0.56086   0.41182   0.00000  Uiso   1.00
Pt3008 Pt    0.19087   0.43732   0.41239   0.00000  Uiso   1.00
Pt3009 Pt    0.27322   0.68546   0.64418   0.00000  Uiso   1.00
Pt3010 Pt    0.62324   0.25323   0.67529   0.00000  Uiso   1.00
Pt3011 Pt    0.41735   0.62168   0.20771   0.00000  Uiso   1.00
Pt3012 Pt    0.23205   0.68465   0.46948   0.00000  Uiso   1.00
Pt3013 Pt    0.31440   0.23198   0.52981   0.00000  Uiso   1.00
Pt3014 Pt    0.19087   0.43813   0.58709   0.00000  Uiso   1.00
Pt3015 Pt    0.29382   0.25270   0.55883   0.00000  Uiso   1.00
Pt3016 Pt    0.25264   0.70511   0.44026   0.00000  Uiso   1.00
Pt3017 Pt    0.52029   0.43920   0.82002   0.00000  Uiso   1.00
Pt3018 Pt    0.23205   0.31406   0.47119   0.00000  Uiso   1.00
Pt3019 Pt    0.80854   0.56166   0.58652   0.00000  Uiso   1.00
Pt3020 Pt    0.43793   0.48038   0.81983   0.00000  Uiso   1.00
Pt3021 Pt    0.80854   0.39642   0.47081   0.00000  Uiso   1.00
Pt3022 Pt    0.58206   0.62168   0.20771   0.00000  Uiso   1.00
Pt3023 Pt    0.25264   0.29388   0.55864   0.00000  Uiso   1.00
Pt3024 Pt    0.68500   0.72530   0.35282   0.00000  Uiso   1.00
Pt3025 Pt    0.72618   0.68412   0.35302   0.00000  Uiso   1.00
Pt3026 Pt    0.68500   0.43894   0.76179   0.00000  Uiso   1.00
Pt3027 Pt    0.68500   0.56005   0.23711   0.00000  Uiso   1.00
Pt3028 Pt    0.47911   0.43920   0.82002   0.00000  Uiso   1.00
Pt3029 Pt    0.68500   0.27369   0.64608   0.00000  Uiso   1.00
Pt3030 Pt    0.56147   0.31541   0.76236   0.00000  Uiso   1.00
Pt3031 Pt    0.19087   0.39668   0.52904   0.00000  Uiso   1.00
Pt3032 Pt    0.56147   0.68359   0.23655   0.00000  Uiso   1.00
Pt3033 Pt    0.62323   0.74575   0.32361   0.00000  Uiso   1.00
Pt3034 Pt    0.43793   0.80873   0.58538   0.00000  Uiso   1.00
Pt3035 Pt    0.62323   0.58051   0.20790   0.00000  Uiso   1.00
Pt3036 Pt    0.74677   0.29388   0.55864   0.00000  Uiso   1.00
Pt3037 Pt    0.56147   0.80873   0.58538   0.00000  Uiso   1.00
Pt3038 Pt    0.37617   0.74737   0.67301   0.00000  Uiso   1.00
Pt3039 Pt    0.74677   0.62222   0.32419   0.00000  Uiso   1.00
Pt3040 Pt    0.76736   0.31433   0.52943   0.00000  Uiso   1.00
Pt3041 Pt    0.62324   0.74736   0.67302   0.00000  Uiso   1.00
Pt3042 Pt    0.56147   0.68600   0.76065   0.00000  Uiso   1.00
Pt3043 Pt    0.43793   0.68600   0.76065   0.00000  Uiso   1.00
Pt3044 Pt    0.66441   0.66528   0.73162   0.00000  Uiso   1.00
Pt3045 Pt    0.33500   0.66527   0.73162   0.00000  Uiso   1.00
Pt3046 Pt    0.49971   0.17008   0.50097   0.00000  Uiso   1.00
Pt3047 Pt    0.17029   0.49950   0.49945   0.00000  Uiso   1.00
Pt3048 Pt    0.49971   0.82891   0.49793   0.00000  Uiso   1.00
Pt3049 Pt    0.33499   0.33587   0.73314   0.00000  Uiso   1.00
Pt3050 Pt    0.33499   0.33372   0.26728   0.00000  Uiso   1.00
Pt3051 Pt    0.66442   0.33371   0.26729   0.00000  Uiso   1.00
Pt3052 Pt    0.66442   0.33586   0.73315   0.00000  Uiso   1.00
Pt3053 Pt    0.33500   0.66313   0.26577   0.00000  Uiso   1.00
Pt3054 Pt    0.82913   0.49950   0.49945   0.00000  Uiso   1.00
Pt3055 Pt    0.66441   0.66313   0.26576   0.00000  Uiso   1.00
Pt3056 Pt    0.54088   0.82890   0.49794   0.00000  Uiso   1.00
Pt3057 Pt    0.68500   0.68572   0.70241   0.00000  Uiso   1.00
Pt3058 Pt    0.31441   0.68572   0.70241   0.00000  Uiso   1.00
Pt3059 Pt    0.64382   0.64482   0.76083   0.00000  Uiso   1.00
Pt3060 Pt    0.35558   0.64239   0.23674   0.00000  Uiso   1.00
Pt3061 Pt    0.64382   0.35417   0.23807   0.00000  Uiso   1.00
Pt3062 Pt    0.72617   0.27262   0.41315   0.00000  Uiso   1.00
Pt3063 Pt    0.35558   0.64482   0.76083   0.00000  Uiso   1.00
Pt3064 Pt    0.66441   0.21126   0.50079   0.00000  Uiso   1.00
Pt3065 Pt    0.54088   0.17008   0.50097   0.00000  Uiso   1.00
Pt3066 Pt    0.27323   0.27262   0.41315   0.00000  Uiso   1.00
Pt3067 Pt    0.27323   0.27342   0.58785   0.00000  Uiso   1.00
Pt3068 Pt    0.17029   0.45831   0.49964   0.00000  Uiso   1.00
Pt3069 Pt    0.56147   0.56274   0.81944   0.00000  Uiso   1.00
Pt3070 Pt    0.43794   0.43921   0.82002   0.00000  Uiso   1.00
Pt3071 Pt    0.82912   0.54067   0.49927   0.00000  Uiso   1.00
Pt3072 Pt    0.66441   0.78773   0.49812   0.00000  Uiso   1.00
Pt3073 Pt    0.45853   0.17008   0.50097   0.00000  Uiso   1.00
Pt3074 Pt    0.45853   0.82891   0.49793   0.00000  Uiso   1.00
Pt3075 Pt    0.56147   0.43625   0.17946   0.00000  Uiso   1.00
Pt3076 Pt    0.43794   0.55978   0.17889   0.00000  Uiso   1.00
Pt3077 Pt    0.64382   0.35659   0.76216   0.00000  Uiso   1.00
Pt3078 Pt    0.78794   0.66420   0.49869   0.00000  Uiso   1.00
Pt3079 Pt    0.31441   0.31513   0.70412   0.00000  Uiso   1.00
Pt3080 Pt    0.35559   0.35659   0.76216   0.00000  Uiso   1.00
Pt3081 Pt    0.68500   0.31326   0.29650   0.00000  Uiso   1.00
Pt3082 Pt    0.35558   0.35417   0.23807   0.00000  Uiso   1.00
Pt3083 Pt    0.43794   0.56273   0.81945   0.00000  Uiso   1.00
Pt3084 Pt    0.33499   0.21126   0.50079   0.00000  Uiso   1.00
Pt3085 Pt    0.43794   0.43625   0.17946   0.00000  Uiso   1.00
Pt3086 Pt    0.31440   0.31326   0.29650   0.00000  Uiso   1.00
Pt3087 Pt    0.33499   0.78773   0.49812   0.00000  Uiso   1.00
Pt3088 Pt    0.21146   0.33478   0.50021   0.00000  Uiso   1.00
Pt3089 Pt    0.72618   0.72637   0.58576   0.00000  Uiso   1.00
Pt3090 Pt    0.27323   0.72637   0.58576   0.00000  Uiso   1.00
Pt3091 Pt    0.17029   0.54067   0.49927   0.00000  Uiso   1.00
Pt3092 Pt    0.56147   0.43920   0.82002   0.00000  Uiso   1.00
Pt3093 Pt    0.27323   0.72556   0.41106   0.00000  Uiso   1.00
Pt3094 Pt    0.21146   0.66420   0.49869   0.00000  Uiso   1.00
Pt3095 Pt    0.56147   0.55978   0.17889   0.00000  Uiso   1.00
Pt3096 Pt    0.72618   0.72556   0.41106   0.00000  Uiso   1.00
Pt3097 Pt    0.68501   0.31513   0.70412   0.00000  Uiso   1.00
Pt3098 Pt    0.31441   0.68385   0.29478   0.00000  Uiso   1.00
Pt3099 Pt    0.78795   0.33478   0.50021   0.00000  Uiso   1.00
Pt3100 Pt    0.72618   0.27342   0.58785   0.00000  Uiso   1.00
Pt3101 Pt    0.64383   0.64240   0.23674   0.00000  Uiso   1.00
Pt3102 Pt    0.68501   0.68385   0.29478   0.00000  Uiso   1.00
Pt3103 Pt    0.82913   0.45831   0.49964   0.00000  Uiso   1.00
