data_con1.3_20nm
_audit_creation_date              2024-08-20
_audit_creation_method            'Materials Studio'
_symmetry_space_group_name_H-M    'P1'
_symmetry_Int_Tables_number       1
_symmetry_cell_setting            triclinic
loop_
_symmetry_equiv_pos_as_xyz
  x,y,z
_cell_length_a                    60.0000
_cell_length_b                    60.0000
_cell_length_c                    60.0000
_cell_angle_alpha                 90.0000
_cell_angle_beta                  90.0000
_cell_angle_gamma                 90.0000
loop_
_atom_site_label
_atom_site_type_symbol
_atom_site_fract_x
_atom_site_fract_y
_atom_site_fract_z
_atom_site_U_iso_or_equiv
_atom_site_adp_type
_atom_site_occupancy
Co0    Co    0.50000   0.43632   0.50000   0.00000  Uiso   1.00
Co1    Co    0.50000   0.56368   0.50000   0.00000  Uiso   1.00
Co2    Co    0.53229   0.43632   0.53229   0.00000  Uiso   1.00
Co3    Co    0.53229   0.43632   0.46771   0.00000  Uiso   1.00
Co4    Co    0.46771   0.43632   0.53229   0.00000  Uiso   1.00
Co5    Co    0.53229   0.56368   0.53229   0.00000  Uiso   1.00
Co6    Co    0.46771   0.43632   0.46771   0.00000  Uiso   1.00
Co7    Co    0.53229   0.56368   0.46771   0.00000  Uiso   1.00
Co8    Co    0.46771   0.56368   0.53229   0.00000  Uiso   1.00
Co9    Co    0.46771   0.56368   0.46771   0.00000  Uiso   1.00
Co10   Co    0.50000   0.43632   0.43542   0.00000  Uiso   1.00
Co11   Co    0.43542   0.43632   0.50000   0.00000  Uiso   1.00
Co12   Co    0.50000   0.43632   0.56458   0.00000  Uiso   1.00
Co13   Co    0.56458   0.43632   0.50000   0.00000  Uiso   1.00
Co14   Co    0.50000   0.56368   0.43542   0.00000  Uiso   1.00
Co15   Co    0.43542   0.56368   0.50000   0.00000  Uiso   1.00
Co16   Co    0.50000   0.56368   0.56458   0.00000  Uiso   1.00
Co17   Co    0.56458   0.56368   0.50000   0.00000  Uiso   1.00
Co18   Co    0.56458   0.43632   0.43542   0.00000  Uiso   1.00
Co19   Co    0.43542   0.43632   0.56458   0.00000  Uiso   1.00
Co20   Co    0.56458   0.43632   0.56458   0.00000  Uiso   1.00
Co21   Co    0.43542   0.43632   0.43542   0.00000  Uiso   1.00
Co22   Co    0.56458   0.56368   0.43542   0.00000  Uiso   1.00
Co23   Co    0.43542   0.56368   0.43542   0.00000  Uiso   1.00
Co24   Co    0.43542   0.56368   0.56458   0.00000  Uiso   1.00
Co25   Co    0.56458   0.56368   0.56458   0.00000  Uiso   1.00
Co26   Co    0.59687   0.43632   0.53229   0.00000  Uiso   1.00
Co27   Co    0.53229   0.43632   0.59687   0.00000  Uiso   1.00
Co28   Co    0.59687   0.43632   0.46771   0.00000  Uiso   1.00
Co29   Co    0.46771   0.43632   0.59687   0.00000  Uiso   1.00
Co30   Co    0.59687   0.56368   0.53229   0.00000  Uiso   1.00
Co31   Co    0.53229   0.56368   0.59687   0.00000  Uiso   1.00
Co32   Co    0.59687   0.56368   0.46771   0.00000  Uiso   1.00
Co33   Co    0.46771   0.56368   0.59687   0.00000  Uiso   1.00
Co34   Co    0.53229   0.43632   0.40313   0.00000  Uiso   1.00
Co35   Co    0.40313   0.43632   0.53229   0.00000  Uiso   1.00
Co36   Co    0.40313   0.43632   0.46771   0.00000  Uiso   1.00
Co37   Co    0.46771   0.43632   0.40313   0.00000  Uiso   1.00
Co38   Co    0.40313   0.56368   0.53229   0.00000  Uiso   1.00
Co39   Co    0.53229   0.56368   0.40313   0.00000  Uiso   1.00
Co40   Co    0.40313   0.56368   0.46771   0.00000  Uiso   1.00
Co41   Co    0.46771   0.56368   0.40313   0.00000  Uiso   1.00
Co42   Co    0.37085   0.43632   0.50000   0.00000  Uiso   1.00
Co43   Co    0.50000   0.43632   0.37085   0.00000  Uiso   1.00
Co44   Co    0.50000   0.43632   0.62915   0.00000  Uiso   1.00
Co45   Co    0.62915   0.43632   0.50000   0.00000  Uiso   1.00
Co46   Co    0.37085   0.56368   0.50000   0.00000  Uiso   1.00
Co47   Co    0.50000   0.56368   0.62915   0.00000  Uiso   1.00
Co48   Co    0.50000   0.56368   0.37085   0.00000  Uiso   1.00
Co49   Co    0.62915   0.56368   0.50000   0.00000  Uiso   1.00
Co50   Co    0.59687   0.43632   0.59687   0.00000  Uiso   1.00
Co51   Co    0.59687   0.56368   0.59687   0.00000  Uiso   1.00
Co52   Co    0.59687   0.43632   0.40313   0.00000  Uiso   1.00
Co53   Co    0.40313   0.43632   0.59687   0.00000  Uiso   1.00
Co54   Co    0.40313   0.56368   0.59687   0.00000  Uiso   1.00
Co55   Co    0.59687   0.56368   0.40313   0.00000  Uiso   1.00
Co56   Co    0.40313   0.43632   0.40313   0.00000  Uiso   1.00
Co57   Co    0.40313   0.56368   0.40313   0.00000  Uiso   1.00
Co58   Co    0.62915   0.43632   0.43542   0.00000  Uiso   1.00
Co59   Co    0.56458   0.43632   0.37085   0.00000  Uiso   1.00
Co60   Co    0.43542   0.43632   0.62915   0.00000  Uiso   1.00
Co61   Co    0.56458   0.43632   0.62915   0.00000  Uiso   1.00
Co62   Co    0.43542   0.43632   0.37085   0.00000  Uiso   1.00
Co63   Co    0.62915   0.43632   0.56458   0.00000  Uiso   1.00
Co64   Co    0.37085   0.43632   0.56458   0.00000  Uiso   1.00
Co65   Co    0.37085   0.43632   0.43542   0.00000  Uiso   1.00
Co66   Co    0.62915   0.56368   0.43542   0.00000  Uiso   1.00
Co67   Co    0.56458   0.56368   0.37085   0.00000  Uiso   1.00
Co68   Co    0.37085   0.56368   0.43542   0.00000  Uiso   1.00
Co69   Co    0.37085   0.56368   0.56458   0.00000  Uiso   1.00
Co70   Co    0.43542   0.56368   0.37085   0.00000  Uiso   1.00
Co71   Co    0.62915   0.56368   0.56458   0.00000  Uiso   1.00
Co72   Co    0.43542   0.56368   0.62915   0.00000  Uiso   1.00
Co73   Co    0.56458   0.56368   0.62915   0.00000  Uiso   1.00
Co74   Co    0.66144   0.43632   0.53229   0.00000  Uiso   1.00
Co75   Co    0.53229   0.43632   0.66144   0.00000  Uiso   1.00
Co76   Co    0.66144   0.43632   0.46771   0.00000  Uiso   1.00
Co77   Co    0.46771   0.43632   0.66144   0.00000  Uiso   1.00
Co78   Co    0.66144   0.56368   0.53229   0.00000  Uiso   1.00
Co79   Co    0.53229   0.56368   0.66144   0.00000  Uiso   1.00
Co80   Co    0.66144   0.56368   0.46771   0.00000  Uiso   1.00
Co81   Co    0.46771   0.56368   0.66144   0.00000  Uiso   1.00
Co82   Co    0.53229   0.43632   0.33856   0.00000  Uiso   1.00
Co83   Co    0.33856   0.43632   0.53229   0.00000  Uiso   1.00
Co84   Co    0.33856   0.43632   0.46771   0.00000  Uiso   1.00
Co85   Co    0.46771   0.43632   0.33856   0.00000  Uiso   1.00
Co86   Co    0.33856   0.56368   0.53229   0.00000  Uiso   1.00
Co87   Co    0.53229   0.56368   0.33856   0.00000  Uiso   1.00
Co88   Co    0.33856   0.56368   0.46771   0.00000  Uiso   1.00
Co89   Co    0.46771   0.56368   0.33856   0.00000  Uiso   1.00
Co90   Co    0.50000   0.30896   0.50000   0.00000  Uiso   1.00
Co91   Co    0.50000   0.69104   0.50000   0.00000  Uiso   1.00
Co92   Co    0.62915   0.43632   0.37085   0.00000  Uiso   1.00
Co93   Co    0.37085   0.43632   0.37085   0.00000  Uiso   1.00
Co94   Co    0.37085   0.43632   0.62915   0.00000  Uiso   1.00
Co95   Co    0.62915   0.43632   0.62915   0.00000  Uiso   1.00
Co96   Co    0.62915   0.56368   0.37085   0.00000  Uiso   1.00
Co97   Co    0.37085   0.56368   0.37085   0.00000  Uiso   1.00
Co98   Co    0.37085   0.56368   0.62915   0.00000  Uiso   1.00
Co99   Co    0.62915   0.56368   0.62915   0.00000  Uiso   1.00
Co100  Co    0.53229   0.30896   0.53229   0.00000  Uiso   1.00
Co101  Co    0.53229   0.30896   0.46771   0.00000  Uiso   1.00
Co102  Co    0.46771   0.30896   0.53229   0.00000  Uiso   1.00
Co103  Co    0.46771   0.30896   0.46771   0.00000  Uiso   1.00
Co104  Co    0.53229   0.69104   0.53229   0.00000  Uiso   1.00
Co105  Co    0.53229   0.69104   0.46771   0.00000  Uiso   1.00
Co106  Co    0.46771   0.69104   0.53229   0.00000  Uiso   1.00
Co107  Co    0.46771   0.69104   0.46771   0.00000  Uiso   1.00
Co108  Co    0.66144   0.43632   0.59687   0.00000  Uiso   1.00
Co109  Co    0.59687   0.43632   0.66144   0.00000  Uiso   1.00
Co110  Co    0.66144   0.56368   0.59687   0.00000  Uiso   1.00
Co111  Co    0.59687   0.56368   0.66144   0.00000  Uiso   1.00
Co112  Co    0.66144   0.43632   0.40313   0.00000  Uiso   1.00
Co113  Co    0.40313   0.43632   0.66144   0.00000  Uiso   1.00
Co114  Co    0.66144   0.56368   0.40313   0.00000  Uiso   1.00
Co115  Co    0.40313   0.56368   0.66144   0.00000  Uiso   1.00
Co116  Co    0.59687   0.43632   0.33856   0.00000  Uiso   1.00
Co117  Co    0.33856   0.43632   0.59687   0.00000  Uiso   1.00
Co118  Co    0.59687   0.56368   0.33856   0.00000  Uiso   1.00
Co119  Co    0.33856   0.56368   0.59687   0.00000  Uiso   1.00
Co120  Co    0.33856   0.43632   0.40313   0.00000  Uiso   1.00
Co121  Co    0.40313   0.43632   0.33856   0.00000  Uiso   1.00
Co122  Co    0.33856   0.56368   0.40313   0.00000  Uiso   1.00
Co123  Co    0.40313   0.56368   0.33856   0.00000  Uiso   1.00
Co124  Co    0.50000   0.30896   0.56458   0.00000  Uiso   1.00
Co125  Co    0.50000   0.30896   0.43542   0.00000  Uiso   1.00
Co126  Co    0.56458   0.30896   0.50000   0.00000  Uiso   1.00
Co127  Co    0.43542   0.30896   0.50000   0.00000  Uiso   1.00
Co128  Co    0.50000   0.69104   0.43542   0.00000  Uiso   1.00
Co129  Co    0.43542   0.69104   0.50000   0.00000  Uiso   1.00
Co130  Co    0.56458   0.69104   0.50000   0.00000  Uiso   1.00
Co131  Co    0.50000   0.69104   0.56458   0.00000  Uiso   1.00
Co132  Co    0.50000   0.43632   0.30627   0.00000  Uiso   1.00
Co133  Co    0.69373   0.43632   0.50000   0.00000  Uiso   1.00
Co134  Co    0.50000   0.43632   0.69373   0.00000  Uiso   1.00
Co135  Co    0.30627   0.43632   0.50000   0.00000  Uiso   1.00
Co136  Co    0.50000   0.56368   0.30627   0.00000  Uiso   1.00
Co137  Co    0.50000   0.56368   0.69373   0.00000  Uiso   1.00
Co138  Co    0.30627   0.56368   0.50000   0.00000  Uiso   1.00
Co139  Co    0.69373   0.56368   0.50000   0.00000  Uiso   1.00
Co140  Co    0.56458   0.30896   0.43542   0.00000  Uiso   1.00
Co141  Co    0.56458   0.30896   0.56458   0.00000  Uiso   1.00
Co142  Co    0.43542   0.30896   0.56458   0.00000  Uiso   1.00
Co143  Co    0.43542   0.30896   0.43542   0.00000  Uiso   1.00
Co144  Co    0.56458   0.69104   0.43542   0.00000  Uiso   1.00
Co145  Co    0.43542   0.69104   0.43542   0.00000  Uiso   1.00
Co146  Co    0.56458   0.69104   0.56458   0.00000  Uiso   1.00
Co147  Co    0.43542   0.69104   0.56458   0.00000  Uiso   1.00
Co148  Co    0.56458   0.43632   0.30627   0.00000  Uiso   1.00
Co149  Co    0.43542   0.43632   0.30627   0.00000  Uiso   1.00
Co150  Co    0.30627   0.43632   0.43542   0.00000  Uiso   1.00
Co151  Co    0.69373   0.43632   0.43542   0.00000  Uiso   1.00
Co152  Co    0.56458   0.43632   0.69373   0.00000  Uiso   1.00
Co153  Co    0.43542   0.43632   0.69373   0.00000  Uiso   1.00
Co154  Co    0.69373   0.43632   0.56458   0.00000  Uiso   1.00
Co155  Co    0.30627   0.43632   0.56458   0.00000  Uiso   1.00
Co156  Co    0.56458   0.56368   0.30627   0.00000  Uiso   1.00
Co157  Co    0.30627   0.56368   0.43542   0.00000  Uiso   1.00
Co158  Co    0.43542   0.56368   0.69373   0.00000  Uiso   1.00
Co159  Co    0.30627   0.56368   0.56458   0.00000  Uiso   1.00
Co160  Co    0.69373   0.56368   0.43542   0.00000  Uiso   1.00
Co161  Co    0.56458   0.56368   0.69373   0.00000  Uiso   1.00
Co162  Co    0.43542   0.56368   0.30627   0.00000  Uiso   1.00
Co163  Co    0.69373   0.56368   0.56458   0.00000  Uiso   1.00
Co164  Co    0.59687   0.30896   0.53229   0.00000  Uiso   1.00
Co165  Co    0.53229   0.30896   0.59687   0.00000  Uiso   1.00
Co166  Co    0.59687   0.30896   0.46771   0.00000  Uiso   1.00
Co167  Co    0.46771   0.30896   0.59687   0.00000  Uiso   1.00
Co168  Co    0.40313   0.30896   0.53229   0.00000  Uiso   1.00
Co169  Co    0.53229   0.30896   0.40313   0.00000  Uiso   1.00
Co170  Co    0.40313   0.30896   0.46771   0.00000  Uiso   1.00
Co171  Co    0.46771   0.30896   0.40313   0.00000  Uiso   1.00
Co172  Co    0.59687   0.69104   0.53229   0.00000  Uiso   1.00
Co173  Co    0.53229   0.69104   0.59687   0.00000  Uiso   1.00
Co174  Co    0.59687   0.69104   0.46771   0.00000  Uiso   1.00
Co175  Co    0.46771   0.69104   0.59687   0.00000  Uiso   1.00
Co176  Co    0.53229   0.69104   0.40313   0.00000  Uiso   1.00
Co177  Co    0.40313   0.69104   0.53229   0.00000  Uiso   1.00
Co178  Co    0.40313   0.69104   0.46771   0.00000  Uiso   1.00
Co179  Co    0.46771   0.69104   0.40313   0.00000  Uiso   1.00
Co180  Co    0.37085   0.30896   0.50000   0.00000  Uiso   1.00
Co181  Co    0.50000   0.30896   0.37085   0.00000  Uiso   1.00
Co182  Co    0.62915   0.30896   0.50000   0.00000  Uiso   1.00
Co183  Co    0.50000   0.30896   0.62915   0.00000  Uiso   1.00
Co184  Co    0.37085   0.69104   0.50000   0.00000  Uiso   1.00
Co185  Co    0.50000   0.69104   0.37085   0.00000  Uiso   1.00
Co186  Co    0.50000   0.69104   0.62915   0.00000  Uiso   1.00
Co187  Co    0.62915   0.69104   0.50000   0.00000  Uiso   1.00
Co188  Co    0.59687   0.30896   0.59687   0.00000  Uiso   1.00
Co189  Co    0.59687   0.30896   0.40313   0.00000  Uiso   1.00
Co190  Co    0.40313   0.30896   0.59687   0.00000  Uiso   1.00
Co191  Co    0.59687   0.69104   0.59687   0.00000  Uiso   1.00
Co192  Co    0.40313   0.30896   0.40313   0.00000  Uiso   1.00
Co193  Co    0.59687   0.69104   0.40313   0.00000  Uiso   1.00
Co194  Co    0.40313   0.69104   0.59687   0.00000  Uiso   1.00
Co195  Co    0.40313   0.69104   0.40313   0.00000  Uiso   1.00
Co196  Co    0.66144   0.43632   0.66144   0.00000  Uiso   1.00
Co197  Co    0.72602   0.43632   0.53229   0.00000  Uiso   1.00
Co198  Co    0.53229   0.43632   0.72602   0.00000  Uiso   1.00
Co199  Co    0.66144   0.56368   0.66144   0.00000  Uiso   1.00
Co200  Co    0.72602   0.43632   0.46771   0.00000  Uiso   1.00
Co201  Co    0.46771   0.43632   0.72602   0.00000  Uiso   1.00
Co202  Co    0.72602   0.56368   0.53229   0.00000  Uiso   1.00
Co203  Co    0.53229   0.56368   0.72602   0.00000  Uiso   1.00
Co204  Co    0.72602   0.56368   0.46771   0.00000  Uiso   1.00
Co205  Co    0.46771   0.56368   0.72602   0.00000  Uiso   1.00
Co206  Co    0.66144   0.43632   0.33856   0.00000  Uiso   1.00
Co207  Co    0.33856   0.43632   0.66144   0.00000  Uiso   1.00
Co208  Co    0.66144   0.56368   0.33856   0.00000  Uiso   1.00
Co209  Co    0.33856   0.56368   0.66144   0.00000  Uiso   1.00
Co210  Co    0.53229   0.43632   0.27398   0.00000  Uiso   1.00
Co211  Co    0.27398   0.43632   0.53229   0.00000  Uiso   1.00
Co212  Co    0.46771   0.43632   0.27398   0.00000  Uiso   1.00
Co213  Co    0.27398   0.43632   0.46771   0.00000  Uiso   1.00
Co214  Co    0.53229   0.56368   0.27398   0.00000  Uiso   1.00
Co215  Co    0.27398   0.56368   0.53229   0.00000  Uiso   1.00
Co216  Co    0.33856   0.43632   0.33856   0.00000  Uiso   1.00
Co217  Co    0.46771   0.56368   0.27398   0.00000  Uiso   1.00
Co218  Co    0.27398   0.56368   0.46771   0.00000  Uiso   1.00
Co219  Co    0.33856   0.56368   0.33856   0.00000  Uiso   1.00
Co220  Co    0.62915   0.30896   0.43542   0.00000  Uiso   1.00
Co221  Co    0.56458   0.30896   0.37085   0.00000  Uiso   1.00
Co222  Co    0.56458   0.30896   0.62915   0.00000  Uiso   1.00
Co223  Co    0.43542   0.30896   0.37085   0.00000  Uiso   1.00
Co224  Co    0.62915   0.30896   0.56458   0.00000  Uiso   1.00
Co225  Co    0.43542   0.30896   0.62915   0.00000  Uiso   1.00
Co226  Co    0.37085   0.30896   0.43542   0.00000  Uiso   1.00
Co227  Co    0.37085   0.30896   0.56458   0.00000  Uiso   1.00
Co228  Co    0.56458   0.69104   0.37085   0.00000  Uiso   1.00
Co229  Co    0.62915   0.69104   0.43542   0.00000  Uiso   1.00
Co230  Co    0.62915   0.69104   0.56458   0.00000  Uiso   1.00
Co231  Co    0.43542   0.69104   0.37085   0.00000  Uiso   1.00
Co232  Co    0.43542   0.69104   0.62915   0.00000  Uiso   1.00
Co233  Co    0.37085   0.69104   0.43542   0.00000  Uiso   1.00
Co234  Co    0.56458   0.69104   0.62915   0.00000  Uiso   1.00
Co235  Co    0.37085   0.69104   0.56458   0.00000  Uiso   1.00
Co236  Co    0.62915   0.43632   0.30627   0.00000  Uiso   1.00
Co237  Co    0.37085   0.43632   0.30627   0.00000  Uiso   1.00
Co238  Co    0.69373   0.43632   0.37085   0.00000  Uiso   1.00
Co239  Co    0.30627   0.43632   0.37085   0.00000  Uiso   1.00
Co240  Co    0.30627   0.43632   0.62915   0.00000  Uiso   1.00
Co241  Co    0.62915   0.43632   0.69373   0.00000  Uiso   1.00
Co242  Co    0.69373   0.43632   0.62915   0.00000  Uiso   1.00
Co243  Co    0.37085   0.43632   0.69373   0.00000  Uiso   1.00
Co244  Co    0.62915   0.56368   0.30627   0.00000  Uiso   1.00
Co245  Co    0.30627   0.56368   0.37085   0.00000  Uiso   1.00
Co246  Co    0.37085   0.56368   0.30627   0.00000  Uiso   1.00
Co247  Co    0.37085   0.56368   0.69373   0.00000  Uiso   1.00
Co248  Co    0.62915   0.56368   0.69373   0.00000  Uiso   1.00
Co249  Co    0.69373   0.56368   0.37085   0.00000  Uiso   1.00
Co250  Co    0.69373   0.56368   0.62915   0.00000  Uiso   1.00
Co251  Co    0.30627   0.56368   0.62915   0.00000  Uiso   1.00
Co252  Co    0.66144   0.30896   0.53229   0.00000  Uiso   1.00
Co253  Co    0.53229   0.30896   0.66144   0.00000  Uiso   1.00
Co254  Co    0.66144   0.30896   0.46771   0.00000  Uiso   1.00
Co255  Co    0.46771   0.30896   0.66144   0.00000  Uiso   1.00
Co256  Co    0.53229   0.30896   0.33856   0.00000  Uiso   1.00
Co257  Co    0.33856   0.30896   0.53229   0.00000  Uiso   1.00
Co258  Co    0.66144   0.69104   0.53229   0.00000  Uiso   1.00
Co259  Co    0.53229   0.69104   0.66144   0.00000  Uiso   1.00
Co260  Co    0.46771   0.30896   0.33856   0.00000  Uiso   1.00
Co261  Co    0.33856   0.30896   0.46771   0.00000  Uiso   1.00
Co262  Co    0.66144   0.69104   0.46771   0.00000  Uiso   1.00
Co263  Co    0.46771   0.69104   0.66144   0.00000  Uiso   1.00
Co264  Co    0.53229   0.69104   0.33856   0.00000  Uiso   1.00
Co265  Co    0.33856   0.69104   0.53229   0.00000  Uiso   1.00
Co266  Co    0.46771   0.69104   0.33856   0.00000  Uiso   1.00
Co267  Co    0.33856   0.69104   0.46771   0.00000  Uiso   1.00
Co268  Co    0.72602   0.43632   0.59687   0.00000  Uiso   1.00
Co269  Co    0.59687   0.43632   0.72602   0.00000  Uiso   1.00
Co270  Co    0.59687   0.56368   0.72602   0.00000  Uiso   1.00
Co271  Co    0.72602   0.56368   0.59687   0.00000  Uiso   1.00
Co272  Co    0.72602   0.43632   0.40313   0.00000  Uiso   1.00
Co273  Co    0.40313   0.43632   0.72602   0.00000  Uiso   1.00
Co274  Co    0.72602   0.56368   0.40313   0.00000  Uiso   1.00
Co275  Co    0.40313   0.56368   0.72602   0.00000  Uiso   1.00
Co276  Co    0.59687   0.43632   0.27398   0.00000  Uiso   1.00
Co277  Co    0.27398   0.43632   0.59687   0.00000  Uiso   1.00
Co278  Co    0.59687   0.56368   0.27398   0.00000  Uiso   1.00
Co279  Co    0.27398   0.56368   0.59687   0.00000  Uiso   1.00
Co280  Co    0.40313   0.43632   0.27398   0.00000  Uiso   1.00
Co281  Co    0.27398   0.43632   0.40313   0.00000  Uiso   1.00
Co282  Co    0.40313   0.56368   0.27398   0.00000  Uiso   1.00
Co283  Co    0.27398   0.56368   0.40313   0.00000  Uiso   1.00
Co284  Co    0.62915   0.30896   0.37085   0.00000  Uiso   1.00
Co285  Co    0.37085   0.30896   0.37085   0.00000  Uiso   1.00
Co286  Co    0.62915   0.30896   0.62915   0.00000  Uiso   1.00
Co287  Co    0.37085   0.30896   0.62915   0.00000  Uiso   1.00
Co288  Co    0.62915   0.69104   0.37085   0.00000  Uiso   1.00
Co289  Co    0.37085   0.69104   0.37085   0.00000  Uiso   1.00
Co290  Co    0.62915   0.69104   0.62915   0.00000  Uiso   1.00
Co291  Co    0.37085   0.69104   0.62915   0.00000  Uiso   1.00
Co292  Co    0.50000   0.43632   0.24169   0.00000  Uiso   1.00
Co293  Co    0.75831   0.43632   0.50000   0.00000  Uiso   1.00
Co294  Co    0.50000   0.43632   0.75831   0.00000  Uiso   1.00
Co295  Co    0.24169   0.43632   0.50000   0.00000  Uiso   1.00
Co296  Co    0.50000   0.56368   0.24169   0.00000  Uiso   1.00
Co297  Co    0.50000   0.56368   0.75831   0.00000  Uiso   1.00
Co298  Co    0.75831   0.56368   0.50000   0.00000  Uiso   1.00
Co299  Co    0.24169   0.56368   0.50000   0.00000  Uiso   1.00
Co300  Co    0.66144   0.30896   0.59687   0.00000  Uiso   1.00
Co301  Co    0.59687   0.30896   0.66144   0.00000  Uiso   1.00
Co302  Co    0.40313   0.30896   0.66144   0.00000  Uiso   1.00
Co303  Co    0.66144   0.30896   0.40313   0.00000  Uiso   1.00
Co304  Co    0.59687   0.30896   0.33856   0.00000  Uiso   1.00
Co305  Co    0.33856   0.30896   0.59687   0.00000  Uiso   1.00
Co306  Co    0.66144   0.69104   0.59687   0.00000  Uiso   1.00
Co307  Co    0.59687   0.69104   0.66144   0.00000  Uiso   1.00
Co308  Co    0.40313   0.30896   0.33856   0.00000  Uiso   1.00
Co309  Co    0.33856   0.30896   0.40313   0.00000  Uiso   1.00
Co310  Co    0.66144   0.69104   0.40313   0.00000  Uiso   1.00
Co311  Co    0.40313   0.69104   0.66144   0.00000  Uiso   1.00
Co312  Co    0.59687   0.69104   0.33856   0.00000  Uiso   1.00
Co313  Co    0.33856   0.69104   0.59687   0.00000  Uiso   1.00
Co314  Co    0.33856   0.69104   0.40313   0.00000  Uiso   1.00
Co315  Co    0.40313   0.69104   0.33856   0.00000  Uiso   1.00
Co316  Co    0.69373   0.30896   0.50000   0.00000  Uiso   1.00
Co317  Co    0.50000   0.30896   0.69373   0.00000  Uiso   1.00
Co318  Co    0.50000   0.30896   0.30627   0.00000  Uiso   1.00
Co319  Co    0.30627   0.30896   0.50000   0.00000  Uiso   1.00
Co320  Co    0.50000   0.69104   0.30627   0.00000  Uiso   1.00
Co321  Co    0.50000   0.69104   0.69373   0.00000  Uiso   1.00
Co322  Co    0.30627   0.69104   0.50000   0.00000  Uiso   1.00
Co323  Co    0.69373   0.69104   0.50000   0.00000  Uiso   1.00
Co324  Co    0.56458   0.43632   0.24169   0.00000  Uiso   1.00
Co325  Co    0.43542   0.43632   0.24169   0.00000  Uiso   1.00
Co326  Co    0.75831   0.43632   0.56458   0.00000  Uiso   1.00
Co327  Co    0.75831   0.43632   0.43542   0.00000  Uiso   1.00
Co328  Co    0.43542   0.43632   0.75831   0.00000  Uiso   1.00
Co329  Co    0.24169   0.43632   0.43542   0.00000  Uiso   1.00
Co330  Co    0.24169   0.43632   0.56458   0.00000  Uiso   1.00
Co331  Co    0.56458   0.43632   0.75831   0.00000  Uiso   1.00
Co332  Co    0.56458   0.56368   0.24169   0.00000  Uiso   1.00
Co333  Co    0.43542   0.56368   0.24169   0.00000  Uiso   1.00
Co334  Co    0.75831   0.56368   0.43542   0.00000  Uiso   1.00
Co335  Co    0.43542   0.56368   0.75831   0.00000  Uiso   1.00
Co336  Co    0.56458   0.56368   0.75831   0.00000  Uiso   1.00
Co337  Co    0.75831   0.56368   0.56458   0.00000  Uiso   1.00
Co338  Co    0.24169   0.56368   0.43542   0.00000  Uiso   1.00
Co339  Co    0.24169   0.56368   0.56458   0.00000  Uiso   1.00
Co340  Co    0.56458   0.30896   0.30627   0.00000  Uiso   1.00
Co341  Co    0.69373   0.30896   0.43542   0.00000  Uiso   1.00
Co342  Co    0.43542   0.30896   0.30627   0.00000  Uiso   1.00
Co343  Co    0.30627   0.30896   0.43542   0.00000  Uiso   1.00
Co344  Co    0.69373   0.30896   0.56458   0.00000  Uiso   1.00
Co345  Co    0.43542   0.30896   0.69373   0.00000  Uiso   1.00
Co346  Co    0.30627   0.30896   0.56458   0.00000  Uiso   1.00
Co347  Co    0.56458   0.30896   0.69373   0.00000  Uiso   1.00
Co348  Co    0.56458   0.69104   0.30627   0.00000  Uiso   1.00
Co349  Co    0.69373   0.69104   0.56458   0.00000  Uiso   1.00
Co350  Co    0.69373   0.69104   0.43542   0.00000  Uiso   1.00
Co351  Co    0.56458   0.69104   0.69373   0.00000  Uiso   1.00
Co352  Co    0.30627   0.69104   0.56458   0.00000  Uiso   1.00
Co353  Co    0.43542   0.69104   0.30627   0.00000  Uiso   1.00
Co354  Co    0.43542   0.69104   0.69373   0.00000  Uiso   1.00
Co355  Co    0.30627   0.69104   0.43542   0.00000  Uiso   1.00
Co356  Co    0.69373   0.43632   0.30627   0.00000  Uiso   1.00
Co357  Co    0.30627   0.43632   0.30627   0.00000  Uiso   1.00
Co358  Co    0.30627   0.43632   0.69373   0.00000  Uiso   1.00
Co359  Co    0.69373   0.43632   0.69373   0.00000  Uiso   1.00
Co360  Co    0.30627   0.56368   0.30627   0.00000  Uiso   1.00
Co361  Co    0.69373   0.56368   0.69373   0.00000  Uiso   1.00
Co362  Co    0.69373   0.56368   0.30627   0.00000  Uiso   1.00
Co363  Co    0.30627   0.56368   0.69373   0.00000  Uiso   1.00
Co364  Co    0.72602   0.43632   0.66144   0.00000  Uiso   1.00
Co365  Co    0.66144   0.43632   0.72602   0.00000  Uiso   1.00
Co366  Co    0.72602   0.56368   0.66144   0.00000  Uiso   1.00
Co367  Co    0.66144   0.56368   0.72602   0.00000  Uiso   1.00
Co368  Co    0.72602   0.43632   0.33856   0.00000  Uiso   1.00
Co369  Co    0.33856   0.43632   0.72602   0.00000  Uiso   1.00
Co370  Co    0.33856   0.56368   0.72602   0.00000  Uiso   1.00
Co371  Co    0.72602   0.56368   0.33856   0.00000  Uiso   1.00
Co372  Co    0.66144   0.43632   0.27398   0.00000  Uiso   1.00
Co373  Co    0.27398   0.43632   0.66144   0.00000  Uiso   1.00
Co374  Co    0.66144   0.56368   0.27398   0.00000  Uiso   1.00
Co375  Co    0.27398   0.56368   0.66144   0.00000  Uiso   1.00
Co376  Co    0.33856   0.43632   0.27398   0.00000  Uiso   1.00
Co377  Co    0.27398   0.43632   0.33856   0.00000  Uiso   1.00
Co378  Co    0.33856   0.56368   0.27398   0.00000  Uiso   1.00
Co379  Co    0.27398   0.56368   0.33856   0.00000  Uiso   1.00
Co380  Co    0.62915   0.43632   0.24169   0.00000  Uiso   1.00
Co381  Co    0.75831   0.43632   0.37085   0.00000  Uiso   1.00
Co382  Co    0.37085   0.43632   0.24169   0.00000  Uiso   1.00
Co383  Co    0.24169   0.43632   0.37085   0.00000  Uiso   1.00
Co384  Co    0.75831   0.43632   0.62915   0.00000  Uiso   1.00
Co385  Co    0.37085   0.43632   0.75831   0.00000  Uiso   1.00
Co386  Co    0.62915   0.43632   0.75831   0.00000  Uiso   1.00
Co387  Co    0.24169   0.43632   0.62915   0.00000  Uiso   1.00
Co388  Co    0.62915   0.56368   0.24169   0.00000  Uiso   1.00
Co389  Co    0.37085   0.56368   0.75831   0.00000  Uiso   1.00
Co390  Co    0.37085   0.56368   0.24169   0.00000  Uiso   1.00
Co391  Co    0.24169   0.56368   0.62915   0.00000  Uiso   1.00
Co392  Co    0.75831   0.56368   0.37085   0.00000  Uiso   1.00
Co393  Co    0.75831   0.56368   0.62915   0.00000  Uiso   1.00
Co394  Co    0.24169   0.56368   0.37085   0.00000  Uiso   1.00
Co395  Co    0.62915   0.56368   0.75831   0.00000  Uiso   1.00
Co396  Co    0.66144   0.30896   0.66144   0.00000  Uiso   1.00
Co397  Co    0.72602   0.30896   0.53229   0.00000  Uiso   1.00
Co398  Co    0.53229   0.30896   0.72602   0.00000  Uiso   1.00
Co399  Co    0.72602   0.30896   0.46771   0.00000  Uiso   1.00
Co400  Co    0.46771   0.30896   0.72602   0.00000  Uiso   1.00
Co401  Co    0.66144   0.30896   0.33856   0.00000  Uiso   1.00
Co402  Co    0.33856   0.30896   0.66144   0.00000  Uiso   1.00
Co403  Co    0.66144   0.69104   0.66144   0.00000  Uiso   1.00
Co404  Co    0.72602   0.69104   0.53229   0.00000  Uiso   1.00
Co405  Co    0.53229   0.69104   0.72602   0.00000  Uiso   1.00
Co406  Co    0.72602   0.69104   0.46771   0.00000  Uiso   1.00
Co407  Co    0.46771   0.69104   0.72602   0.00000  Uiso   1.00
Co408  Co    0.53229   0.30896   0.27398   0.00000  Uiso   1.00
Co409  Co    0.27398   0.30896   0.53229   0.00000  Uiso   1.00
Co410  Co    0.46771   0.30896   0.27398   0.00000  Uiso   1.00
Co411  Co    0.27398   0.30896   0.46771   0.00000  Uiso   1.00
Co412  Co    0.33856   0.30896   0.33856   0.00000  Uiso   1.00
Co413  Co    0.66144   0.69104   0.33856   0.00000  Uiso   1.00
Co414  Co    0.33856   0.69104   0.66144   0.00000  Uiso   1.00
Co415  Co    0.53229   0.69104   0.27398   0.00000  Uiso   1.00
Co416  Co    0.27398   0.69104   0.53229   0.00000  Uiso   1.00
Co417  Co    0.46771   0.69104   0.27398   0.00000  Uiso   1.00
Co418  Co    0.27398   0.69104   0.46771   0.00000  Uiso   1.00
Co419  Co    0.33856   0.69104   0.33856   0.00000  Uiso   1.00
Co420  Co    0.79060   0.43632   0.53229   0.00000  Uiso   1.00
Co421  Co    0.53229   0.43632   0.79060   0.00000  Uiso   1.00
Co422  Co    0.79060   0.43632   0.46771   0.00000  Uiso   1.00
Co423  Co    0.46771   0.43632   0.79060   0.00000  Uiso   1.00
Co424  Co    0.79060   0.56368   0.53229   0.00000  Uiso   1.00
Co425  Co    0.53229   0.56368   0.79060   0.00000  Uiso   1.00
Co426  Co    0.79060   0.56368   0.46771   0.00000  Uiso   1.00
Co427  Co    0.46771   0.56368   0.79060   0.00000  Uiso   1.00
Co428  Co    0.53229   0.43632   0.20940   0.00000  Uiso   1.00
Co429  Co    0.20940   0.43632   0.53229   0.00000  Uiso   1.00
Co430  Co    0.46771   0.43632   0.20940   0.00000  Uiso   1.00
Co431  Co    0.20940   0.43632   0.46771   0.00000  Uiso   1.00
Co432  Co    0.53229   0.56368   0.20940   0.00000  Uiso   1.00
Co433  Co    0.20940   0.56368   0.53229   0.00000  Uiso   1.00
Co434  Co    0.20940   0.56368   0.46771   0.00000  Uiso   1.00
Co435  Co    0.46771   0.56368   0.20940   0.00000  Uiso   1.00
Co436  Co    0.62915   0.30896   0.30627   0.00000  Uiso   1.00
Co437  Co    0.30627   0.30896   0.37085   0.00000  Uiso   1.00
Co438  Co    0.69373   0.30896   0.37085   0.00000  Uiso   1.00
Co439  Co    0.37085   0.30896   0.30627   0.00000  Uiso   1.00
Co440  Co    0.30627   0.30896   0.62915   0.00000  Uiso   1.00
Co441  Co    0.62915   0.30896   0.69373   0.00000  Uiso   1.00
Co442  Co    0.37085   0.30896   0.69373   0.00000  Uiso   1.00
Co443  Co    0.69373   0.30896   0.62915   0.00000  Uiso   1.00
Co444  Co    0.62915   0.69104   0.30627   0.00000  Uiso   1.00
Co445  Co    0.37085   0.69104   0.30627   0.00000  Uiso   1.00
Co446  Co    0.30627   0.69104   0.62915   0.00000  Uiso   1.00
Co447  Co    0.69373   0.69104   0.37085   0.00000  Uiso   1.00
Co448  Co    0.62915   0.69104   0.69373   0.00000  Uiso   1.00
Co449  Co    0.30627   0.69104   0.37085   0.00000  Uiso   1.00
Co450  Co    0.37085   0.69104   0.69373   0.00000  Uiso   1.00
Co451  Co    0.69373   0.69104   0.62915   0.00000  Uiso   1.00
Co452  Co    0.72602   0.30896   0.59687   0.00000  Uiso   1.00
Co453  Co    0.59687   0.30896   0.72602   0.00000  Uiso   1.00
Co454  Co    0.72602   0.30896   0.40313   0.00000  Uiso   1.00
Co455  Co    0.40313   0.30896   0.72602   0.00000  Uiso   1.00
Co456  Co    0.72602   0.69104   0.59687   0.00000  Uiso   1.00
Co457  Co    0.59687   0.69104   0.72602   0.00000  Uiso   1.00
Co458  Co    0.59687   0.30896   0.27398   0.00000  Uiso   1.00
Co459  Co    0.27398   0.30896   0.59687   0.00000  Uiso   1.00
Co460  Co    0.72602   0.69104   0.40313   0.00000  Uiso   1.00
Co461  Co    0.40313   0.69104   0.72602   0.00000  Uiso   1.00
Co462  Co    0.40313   0.30896   0.27398   0.00000  Uiso   1.00
Co463  Co    0.27398   0.30896   0.40313   0.00000  Uiso   1.00
Co464  Co    0.59687   0.69104   0.27398   0.00000  Uiso   1.00
Co465  Co    0.27398   0.69104   0.59687   0.00000  Uiso   1.00
Co466  Co    0.40313   0.69104   0.27398   0.00000  Uiso   1.00
Co467  Co    0.27398   0.69104   0.40313   0.00000  Uiso   1.00
Co468  Co    0.79060   0.43632   0.59687   0.00000  Uiso   1.00
Co469  Co    0.59687   0.43632   0.79060   0.00000  Uiso   1.00
Co470  Co    0.59687   0.56368   0.79060   0.00000  Uiso   1.00
Co471  Co    0.79060   0.56368   0.59687   0.00000  Uiso   1.00
Co472  Co    0.79060   0.43632   0.40313   0.00000  Uiso   1.00
Co473  Co    0.40313   0.43632   0.79060   0.00000  Uiso   1.00
Co474  Co    0.79060   0.56368   0.40313   0.00000  Uiso   1.00
Co475  Co    0.40313   0.56368   0.79060   0.00000  Uiso   1.00
Co476  Co    0.59687   0.43632   0.20940   0.00000  Uiso   1.00
Co477  Co    0.20940   0.43632   0.59687   0.00000  Uiso   1.00
Co478  Co    0.20940   0.56368   0.59687   0.00000  Uiso   1.00
Co479  Co    0.59687   0.56368   0.20940   0.00000  Uiso   1.00
Co480  Co    0.40313   0.43632   0.20940   0.00000  Uiso   1.00
Co481  Co    0.20940   0.43632   0.40313   0.00000  Uiso   1.00
Co482  Co    0.20940   0.56368   0.40313   0.00000  Uiso   1.00
Co483  Co    0.40313   0.56368   0.20940   0.00000  Uiso   1.00
Co484  Co    0.50000   0.18160   0.50000   0.00000  Uiso   1.00
Co485  Co    0.50000   0.81840   0.50000   0.00000  Uiso   1.00
Co486  Co    0.50000   0.30896   0.24169   0.00000  Uiso   1.00
Co487  Co    0.75831   0.30896   0.50000   0.00000  Uiso   1.00
Co488  Co    0.50000   0.30896   0.75831   0.00000  Uiso   1.00
Co489  Co    0.24169   0.30896   0.50000   0.00000  Uiso   1.00
Co490  Co    0.50000   0.69104   0.24169   0.00000  Uiso   1.00
Co491  Co    0.50000   0.69104   0.75831   0.00000  Uiso   1.00
Co492  Co    0.24169   0.69104   0.50000   0.00000  Uiso   1.00
Co493  Co    0.75831   0.69104   0.50000   0.00000  Uiso   1.00
Co494  Co    0.53229   0.18160   0.53229   0.00000  Uiso   1.00
Co495  Co    0.53229   0.18160   0.46771   0.00000  Uiso   1.00
Co496  Co    0.46771   0.18160   0.53229   0.00000  Uiso   1.00
Co497  Co    0.46771   0.18160   0.46771   0.00000  Uiso   1.00
Co498  Co    0.53229   0.81840   0.53229   0.00000  Uiso   1.00
Co499  Co    0.46771   0.81840   0.53229   0.00000  Uiso   1.00
Co500  Co    0.53229   0.81840   0.46771   0.00000  Uiso   1.00
Co501  Co    0.46771   0.81840   0.46771   0.00000  Uiso   1.00
Co502  Co    0.56458   0.18160   0.50000   0.00000  Uiso   1.00
Co503  Co    0.43542   0.18160   0.50000   0.00000  Uiso   1.00
Co504  Co    0.50000   0.18160   0.43542   0.00000  Uiso   1.00
Co505  Co    0.50000   0.18160   0.56458   0.00000  Uiso   1.00
Co506  Co    0.50000   0.81840   0.43542   0.00000  Uiso   1.00
Co507  Co    0.43542   0.81840   0.50000   0.00000  Uiso   1.00
Co508  Co    0.56458   0.81840   0.50000   0.00000  Uiso   1.00
Co509  Co    0.50000   0.81840   0.56458   0.00000  Uiso   1.00
Co510  Co    0.72602   0.43632   0.72602   0.00000  Uiso   1.00
Co511  Co    0.72602   0.56368   0.72602   0.00000  Uiso   1.00
Co512  Co    0.72602   0.43632   0.27398   0.00000  Uiso   1.00
Co513  Co    0.27398   0.43632   0.72602   0.00000  Uiso   1.00
Co514  Co    0.72602   0.56368   0.27398   0.00000  Uiso   1.00
Co515  Co    0.27398   0.56368   0.72602   0.00000  Uiso   1.00
Co516  Co    0.27398   0.43632   0.27398   0.00000  Uiso   1.00
Co517  Co    0.27398   0.56368   0.27398   0.00000  Uiso   1.00
Co518  Co    0.56458   0.30896   0.24169   0.00000  Uiso   1.00
Co519  Co    0.43542   0.30896   0.24169   0.00000  Uiso   1.00
Co520  Co    0.24169   0.30896   0.43542   0.00000  Uiso   1.00
Co521  Co    0.75831   0.30896   0.43542   0.00000  Uiso   1.00
Co522  Co    0.24169   0.30896   0.56458   0.00000  Uiso   1.00
Co523  Co    0.75831   0.30896   0.56458   0.00000  Uiso   1.00
Co524  Co    0.43542   0.30896   0.75831   0.00000  Uiso   1.00
Co525  Co    0.56458   0.30896   0.75831   0.00000  Uiso   1.00
Co526  Co    0.43542   0.69104   0.24169   0.00000  Uiso   1.00
Co527  Co    0.56458   0.69104   0.24169   0.00000  Uiso   1.00
Co528  Co    0.43542   0.69104   0.75831   0.00000  Uiso   1.00
Co529  Co    0.24169   0.69104   0.43542   0.00000  Uiso   1.00
Co530  Co    0.56458   0.69104   0.75831   0.00000  Uiso   1.00
Co531  Co    0.24169   0.69104   0.56458   0.00000  Uiso   1.00
Co532  Co    0.75831   0.69104   0.43542   0.00000  Uiso   1.00
Co533  Co    0.75831   0.69104   0.56458   0.00000  Uiso   1.00
Co534  Co    0.50000   0.43632   0.17711   0.00000  Uiso   1.00
Co535  Co    0.69373   0.43632   0.24169   0.00000  Uiso   1.00
Co536  Co    0.30627   0.43632   0.24169   0.00000  Uiso   1.00
Co537  Co    0.75831   0.43632   0.30627   0.00000  Uiso   1.00
Co538  Co    0.82289   0.43632   0.50000   0.00000  Uiso   1.00
Co539  Co    0.24169   0.43632   0.30627   0.00000  Uiso   1.00
Co540  Co    0.69373   0.43632   0.75831   0.00000  Uiso   1.00
Co541  Co    0.24169   0.43632   0.69373   0.00000  Uiso   1.00
Co542  Co    0.75831   0.43632   0.69373   0.00000  Uiso   1.00
Co543  Co    0.30627   0.43632   0.75831   0.00000  Uiso   1.00
Co544  Co    0.50000   0.43632   0.82289   0.00000  Uiso   1.00
Co545  Co    0.17711   0.43632   0.50000   0.00000  Uiso   1.00
Co546  Co    0.30627   0.56368   0.24169   0.00000  Uiso   1.00
Co547  Co    0.82289   0.56368   0.50000   0.00000  Uiso   1.00
Co548  Co    0.24169   0.56368   0.30627   0.00000  Uiso   1.00
Co549  Co    0.75831   0.56368   0.69373   0.00000  Uiso   1.00
Co550  Co    0.69373   0.56368   0.24169   0.00000  Uiso   1.00
Co551  Co    0.50000   0.56368   0.17711   0.00000  Uiso   1.00
Co552  Co    0.75831   0.56368   0.30627   0.00000  Uiso   1.00
Co553  Co    0.17711   0.56368   0.50000   0.00000  Uiso   1.00
Co554  Co    0.50000   0.56368   0.82289   0.00000  Uiso   1.00
Co555  Co    0.69373   0.56368   0.75831   0.00000  Uiso   1.00
Co556  Co    0.24169   0.56368   0.69373   0.00000  Uiso   1.00
Co557  Co    0.30627   0.56368   0.75831   0.00000  Uiso   1.00
Co558  Co    0.56458   0.18160   0.43542   0.00000  Uiso   1.00
Co559  Co    0.43542   0.18160   0.43542   0.00000  Uiso   1.00
Co560  Co    0.43542   0.18160   0.56458   0.00000  Uiso   1.00
Co561  Co    0.56458   0.18160   0.56458   0.00000  Uiso   1.00
Co562  Co    0.56458   0.81840   0.43542   0.00000  Uiso   1.00
Co563  Co    0.56458   0.81840   0.56458   0.00000  Uiso   1.00
Co564  Co    0.43542   0.81840   0.43542   0.00000  Uiso   1.00
Co565  Co    0.43542   0.81840   0.56458   0.00000  Uiso   1.00
Pt566  Pt    0.50000   0.50000   0.50000   0.00000  Uiso   1.00
Pt567  Pt    0.53229   0.50000   0.53229   0.00000  Uiso   1.00
Pt568  Pt    0.53229   0.50000   0.46771   0.00000  Uiso   1.00
Pt569  Pt    0.46771   0.50000   0.53229   0.00000  Uiso   1.00
Pt570  Pt    0.46771   0.50000   0.46771   0.00000  Uiso   1.00
Pt571  Pt    0.53229   0.46538   0.50000   0.00000  Uiso   1.00
Pt572  Pt    0.50000   0.46538   0.53229   0.00000  Uiso   1.00
Pt573  Pt    0.46771   0.46538   0.50000   0.00000  Uiso   1.00
Pt574  Pt    0.50000   0.46538   0.46771   0.00000  Uiso   1.00
Pt575  Pt    0.53229   0.53462   0.50000   0.00000  Uiso   1.00
Pt576  Pt    0.50000   0.53462   0.53229   0.00000  Uiso   1.00
Pt577  Pt    0.46771   0.53462   0.50000   0.00000  Uiso   1.00
Pt578  Pt    0.50000   0.53462   0.46771   0.00000  Uiso   1.00
Pt579  Pt    0.43542   0.50000   0.50000   0.00000  Uiso   1.00
Pt580  Pt    0.50000   0.50000   0.43542   0.00000  Uiso   1.00
Pt581  Pt    0.50000   0.50000   0.56458   0.00000  Uiso   1.00
Pt582  Pt    0.56458   0.50000   0.50000   0.00000  Uiso   1.00
Pt583  Pt    0.53229   0.46538   0.43542   0.00000  Uiso   1.00
Pt584  Pt    0.43542   0.46538   0.53229   0.00000  Uiso   1.00
Pt585  Pt    0.53229   0.46538   0.56458   0.00000  Uiso   1.00
Pt586  Pt    0.56458   0.46538   0.53229   0.00000  Uiso   1.00
Pt587  Pt    0.56458   0.46538   0.46771   0.00000  Uiso   1.00
Pt588  Pt    0.46771   0.46538   0.43542   0.00000  Uiso   1.00
Pt589  Pt    0.46771   0.46538   0.56458   0.00000  Uiso   1.00
Pt590  Pt    0.43542   0.46538   0.46771   0.00000  Uiso   1.00
Pt591  Pt    0.53229   0.53462   0.43542   0.00000  Uiso   1.00
Pt592  Pt    0.43542   0.53462   0.53229   0.00000  Uiso   1.00
Pt593  Pt    0.53229   0.53462   0.56458   0.00000  Uiso   1.00
Pt594  Pt    0.56458   0.53462   0.53229   0.00000  Uiso   1.00
Pt595  Pt    0.56458   0.53462   0.46771   0.00000  Uiso   1.00
Pt596  Pt    0.46771   0.53462   0.43542   0.00000  Uiso   1.00
Pt597  Pt    0.46771   0.53462   0.56458   0.00000  Uiso   1.00
Pt598  Pt    0.43542   0.53462   0.46771   0.00000  Uiso   1.00
Pt599  Pt    0.56458   0.50000   0.43542   0.00000  Uiso   1.00
Pt600  Pt    0.56458   0.50000   0.56458   0.00000  Uiso   1.00
Pt601  Pt    0.43542   0.50000   0.56458   0.00000  Uiso   1.00
Pt602  Pt    0.43542   0.50000   0.43542   0.00000  Uiso   1.00
Pt603  Pt    0.50000   0.40726   0.53229   0.00000  Uiso   1.00
Pt604  Pt    0.53229   0.40726   0.50000   0.00000  Uiso   1.00
Pt605  Pt    0.50000   0.40726   0.46771   0.00000  Uiso   1.00
Pt606  Pt    0.46771   0.40726   0.50000   0.00000  Uiso   1.00
Pt607  Pt    0.53229   0.59274   0.50000   0.00000  Uiso   1.00
Pt608  Pt    0.50000   0.59274   0.53229   0.00000  Uiso   1.00
Pt609  Pt    0.50000   0.59274   0.46771   0.00000  Uiso   1.00
Pt610  Pt    0.46771   0.59274   0.50000   0.00000  Uiso   1.00
Pt611  Pt    0.59687   0.50000   0.53229   0.00000  Uiso   1.00
Pt612  Pt    0.53229   0.50000   0.59687   0.00000  Uiso   1.00
Pt613  Pt    0.59687   0.50000   0.46771   0.00000  Uiso   1.00
Pt614  Pt    0.46771   0.50000   0.59687   0.00000  Uiso   1.00
Pt615  Pt    0.53229   0.50000   0.40313   0.00000  Uiso   1.00
Pt616  Pt    0.40313   0.50000   0.53229   0.00000  Uiso   1.00
Pt617  Pt    0.40313   0.50000   0.46771   0.00000  Uiso   1.00
Pt618  Pt    0.46771   0.50000   0.40313   0.00000  Uiso   1.00
Pt619  Pt    0.59687   0.46538   0.50000   0.00000  Uiso   1.00
Pt620  Pt    0.50000   0.46538   0.59687   0.00000  Uiso   1.00
Pt621  Pt    0.59687   0.53462   0.50000   0.00000  Uiso   1.00
Pt622  Pt    0.50000   0.53462   0.59687   0.00000  Uiso   1.00
Pt623  Pt    0.40313   0.46538   0.50000   0.00000  Uiso   1.00
Pt624  Pt    0.50000   0.46538   0.40313   0.00000  Uiso   1.00
Pt625  Pt    0.40313   0.53462   0.50000   0.00000  Uiso   1.00
Pt626  Pt    0.50000   0.53462   0.40313   0.00000  Uiso   1.00
Pt627  Pt    0.43542   0.40726   0.53229   0.00000  Uiso   1.00
Pt628  Pt    0.56458   0.40726   0.53229   0.00000  Uiso   1.00
Pt629  Pt    0.53229   0.40726   0.43542   0.00000  Uiso   1.00
Pt630  Pt    0.53229   0.40726   0.56458   0.00000  Uiso   1.00
Pt631  Pt    0.56458   0.40726   0.46771   0.00000  Uiso   1.00
Pt632  Pt    0.43542   0.40726   0.46771   0.00000  Uiso   1.00
Pt633  Pt    0.46771   0.40726   0.43542   0.00000  Uiso   1.00
Pt634  Pt    0.46771   0.40726   0.56458   0.00000  Uiso   1.00
Pt635  Pt    0.56458   0.59274   0.53229   0.00000  Uiso   1.00
Pt636  Pt    0.53229   0.59274   0.43542   0.00000  Uiso   1.00
Pt637  Pt    0.43542   0.59274   0.53229   0.00000  Uiso   1.00
Pt638  Pt    0.53229   0.59274   0.56458   0.00000  Uiso   1.00
Pt639  Pt    0.56458   0.59274   0.46771   0.00000  Uiso   1.00
Pt640  Pt    0.46771   0.59274   0.43542   0.00000  Uiso   1.00
Pt641  Pt    0.46771   0.59274   0.56458   0.00000  Uiso   1.00
Pt642  Pt    0.43542   0.59274   0.46771   0.00000  Uiso   1.00
Pt643  Pt    0.59687   0.46538   0.43542   0.00000  Uiso   1.00
Pt644  Pt    0.59687   0.46538   0.56458   0.00000  Uiso   1.00
Pt645  Pt    0.43542   0.46538   0.59687   0.00000  Uiso   1.00
Pt646  Pt    0.56458   0.46538   0.59687   0.00000  Uiso   1.00
Pt647  Pt    0.59687   0.53462   0.43542   0.00000  Uiso   1.00
Pt648  Pt    0.59687   0.53462   0.56458   0.00000  Uiso   1.00
Pt649  Pt    0.56458   0.53462   0.59687   0.00000  Uiso   1.00
Pt650  Pt    0.43542   0.53462   0.59687   0.00000  Uiso   1.00
Pt651  Pt    0.56458   0.46538   0.40313   0.00000  Uiso   1.00
Pt652  Pt    0.40313   0.46538   0.56458   0.00000  Uiso   1.00
Pt653  Pt    0.40313   0.46538   0.43542   0.00000  Uiso   1.00
Pt654  Pt    0.43542   0.46538   0.40313   0.00000  Uiso   1.00
Pt655  Pt    0.56458   0.53462   0.40313   0.00000  Uiso   1.00
Pt656  Pt    0.40313   0.53462   0.56458   0.00000  Uiso   1.00
Pt657  Pt    0.40313   0.53462   0.43542   0.00000  Uiso   1.00
Pt658  Pt    0.43542   0.53462   0.40313   0.00000  Uiso   1.00
Pt659  Pt    0.50000   0.62736   0.50000   0.00000  Uiso   1.00
Pt660  Pt    0.50000   0.37264   0.50000   0.00000  Uiso   1.00
Pt661  Pt    0.50000   0.50000   0.37085   0.00000  Uiso   1.00
Pt662  Pt    0.37085   0.50000   0.50000   0.00000  Uiso   1.00
Pt663  Pt    0.62915   0.50000   0.50000   0.00000  Uiso   1.00
Pt664  Pt    0.50000   0.50000   0.62915   0.00000  Uiso   1.00
Pt665  Pt    0.50000   0.40726   0.59687   0.00000  Uiso   1.00
Pt666  Pt    0.59687   0.40726   0.50000   0.00000  Uiso   1.00
Pt667  Pt    0.59687   0.59274   0.50000   0.00000  Uiso   1.00
Pt668  Pt    0.50000   0.59274   0.59687   0.00000  Uiso   1.00
Pt669  Pt    0.50000   0.40726   0.40313   0.00000  Uiso   1.00
Pt670  Pt    0.40313   0.40726   0.50000   0.00000  Uiso   1.00
Pt671  Pt    0.50000   0.59274   0.40313   0.00000  Uiso   1.00
Pt672  Pt    0.40313   0.59274   0.50000   0.00000  Uiso   1.00
Pt673  Pt    0.53229   0.62736   0.53229   0.00000  Uiso   1.00
Pt674  Pt    0.53229   0.37264   0.53229   0.00000  Uiso   1.00
Pt675  Pt    0.46771   0.37264   0.53229   0.00000  Uiso   1.00
Pt676  Pt    0.46771   0.62736   0.53229   0.00000  Uiso   1.00
Pt677  Pt    0.53229   0.37264   0.46771   0.00000  Uiso   1.00
Pt678  Pt    0.53229   0.62736   0.46771   0.00000  Uiso   1.00
Pt679  Pt    0.46771   0.62736   0.46771   0.00000  Uiso   1.00
Pt680  Pt    0.46771   0.37264   0.46771   0.00000  Uiso   1.00
Pt681  Pt    0.59687   0.50000   0.59687   0.00000  Uiso   1.00
Pt682  Pt    0.59687   0.50000   0.40313   0.00000  Uiso   1.00
Pt683  Pt    0.40313   0.50000   0.59687   0.00000  Uiso   1.00
Pt684  Pt    0.40313   0.50000   0.40313   0.00000  Uiso   1.00
Pt685  Pt    0.53229   0.46538   0.37085   0.00000  Uiso   1.00
Pt686  Pt    0.37085   0.46538   0.53229   0.00000  Uiso   1.00
Pt687  Pt    0.53229   0.46538   0.62915   0.00000  Uiso   1.00
Pt688  Pt    0.62915   0.46538   0.53229   0.00000  Uiso   1.00
Pt689  Pt    0.46771   0.46538   0.37085   0.00000  Uiso   1.00
Pt690  Pt    0.37085   0.46538   0.46771   0.00000  Uiso   1.00
Pt691  Pt    0.46771   0.46538   0.62915   0.00000  Uiso   1.00
Pt692  Pt    0.62915   0.46538   0.46771   0.00000  Uiso   1.00
Pt693  Pt    0.53229   0.53462   0.37085   0.00000  Uiso   1.00
Pt694  Pt    0.37085   0.53462   0.53229   0.00000  Uiso   1.00
Pt695  Pt    0.53229   0.53462   0.62915   0.00000  Uiso   1.00
Pt696  Pt    0.62915   0.53462   0.53229   0.00000  Uiso   1.00
Pt697  Pt    0.46771   0.53462   0.37085   0.00000  Uiso   1.00
Pt698  Pt    0.37085   0.53462   0.46771   0.00000  Uiso   1.00
Pt699  Pt    0.46771   0.53462   0.62915   0.00000  Uiso   1.00
Pt700  Pt    0.62915   0.53462   0.46771   0.00000  Uiso   1.00
Pt701  Pt    0.43542   0.62736   0.50000   0.00000  Uiso   1.00
Pt702  Pt    0.50000   0.37264   0.43542   0.00000  Uiso   1.00
Pt703  Pt    0.43542   0.37264   0.50000   0.00000  Uiso   1.00
Pt704  Pt    0.50000   0.62736   0.43542   0.00000  Uiso   1.00
Pt705  Pt    0.56458   0.37264   0.50000   0.00000  Uiso   1.00
Pt706  Pt    0.56458   0.62736   0.50000   0.00000  Uiso   1.00
Pt707  Pt    0.50000   0.37264   0.56458   0.00000  Uiso   1.00
Pt708  Pt    0.50000   0.62736   0.56458   0.00000  Uiso   1.00
Pt709  Pt    0.62915   0.50000   0.43542   0.00000  Uiso   1.00
Pt710  Pt    0.56458   0.50000   0.37085   0.00000  Uiso   1.00
Pt711  Pt    0.37085   0.50000   0.43542   0.00000  Uiso   1.00
Pt712  Pt    0.43542   0.50000   0.62915   0.00000  Uiso   1.00
Pt713  Pt    0.56458   0.50000   0.62915   0.00000  Uiso   1.00
Pt714  Pt    0.37085   0.50000   0.56458   0.00000  Uiso   1.00
Pt715  Pt    0.62915   0.50000   0.56458   0.00000  Uiso   1.00
Pt716  Pt    0.43542   0.50000   0.37085   0.00000  Uiso   1.00
Pt717  Pt    0.59687   0.40726   0.43542   0.00000  Uiso   1.00
Pt718  Pt    0.43542   0.40726   0.59687   0.00000  Uiso   1.00
Pt719  Pt    0.56458   0.40726   0.59687   0.00000  Uiso   1.00
Pt720  Pt    0.59687   0.40726   0.56458   0.00000  Uiso   1.00
Pt721  Pt    0.59687   0.59274   0.56458   0.00000  Uiso   1.00
Pt722  Pt    0.59687   0.59274   0.43542   0.00000  Uiso   1.00
Pt723  Pt    0.56458   0.59274   0.59687   0.00000  Uiso   1.00
Pt724  Pt    0.43542   0.59274   0.59687   0.00000  Uiso   1.00
Pt725  Pt    0.56458   0.40726   0.40313   0.00000  Uiso   1.00
Pt726  Pt    0.43542   0.40726   0.40313   0.00000  Uiso   1.00
Pt727  Pt    0.40313   0.40726   0.56458   0.00000  Uiso   1.00
Pt728  Pt    0.40313   0.40726   0.43542   0.00000  Uiso   1.00
Pt729  Pt    0.43542   0.59274   0.40313   0.00000  Uiso   1.00
Pt730  Pt    0.56458   0.59274   0.40313   0.00000  Uiso   1.00
Pt731  Pt    0.40313   0.59274   0.56458   0.00000  Uiso   1.00
Pt732  Pt    0.40313   0.59274   0.43542   0.00000  Uiso   1.00
Pt733  Pt    0.56458   0.37264   0.43542   0.00000  Uiso   1.00
Pt734  Pt    0.43542   0.62736   0.43542   0.00000  Uiso   1.00
Pt735  Pt    0.56458   0.62736   0.43542   0.00000  Uiso   1.00
Pt736  Pt    0.43542   0.62736   0.56458   0.00000  Uiso   1.00
Pt737  Pt    0.56458   0.37264   0.56458   0.00000  Uiso   1.00
Pt738  Pt    0.56458   0.62736   0.56458   0.00000  Uiso   1.00
Pt739  Pt    0.43542   0.37264   0.43542   0.00000  Uiso   1.00
Pt740  Pt    0.43542   0.37264   0.56458   0.00000  Uiso   1.00
Pt741  Pt    0.37085   0.40726   0.53229   0.00000  Uiso   1.00
Pt742  Pt    0.53229   0.40726   0.37085   0.00000  Uiso   1.00
Pt743  Pt    0.62915   0.40726   0.53229   0.00000  Uiso   1.00
Pt744  Pt    0.53229   0.40726   0.62915   0.00000  Uiso   1.00
Pt745  Pt    0.62915   0.40726   0.46771   0.00000  Uiso   1.00
Pt746  Pt    0.37085   0.40726   0.46771   0.00000  Uiso   1.00
Pt747  Pt    0.46771   0.40726   0.37085   0.00000  Uiso   1.00
Pt748  Pt    0.46771   0.40726   0.62915   0.00000  Uiso   1.00
Pt749  Pt    0.62915   0.59274   0.53229   0.00000  Uiso   1.00
Pt750  Pt    0.53229   0.59274   0.37085   0.00000  Uiso   1.00
Pt751  Pt    0.37085   0.59274   0.53229   0.00000  Uiso   1.00
Pt752  Pt    0.53229   0.59274   0.62915   0.00000  Uiso   1.00
Pt753  Pt    0.46771   0.59274   0.37085   0.00000  Uiso   1.00
Pt754  Pt    0.46771   0.59274   0.62915   0.00000  Uiso   1.00
Pt755  Pt    0.37085   0.59274   0.46771   0.00000  Uiso   1.00
Pt756  Pt    0.62915   0.59274   0.46771   0.00000  Uiso   1.00
Pt757  Pt    0.59687   0.62736   0.53229   0.00000  Uiso   1.00
Pt758  Pt    0.59687   0.37264   0.53229   0.00000  Uiso   1.00
Pt759  Pt    0.53229   0.37264   0.59687   0.00000  Uiso   1.00
Pt760  Pt    0.53229   0.62736   0.59687   0.00000  Uiso   1.00
Pt761  Pt    0.59687   0.37264   0.46771   0.00000  Uiso   1.00
Pt762  Pt    0.59687   0.62736   0.46771   0.00000  Uiso   1.00
Pt763  Pt    0.46771   0.37264   0.59687   0.00000  Uiso   1.00
Pt764  Pt    0.46771   0.62736   0.59687   0.00000  Uiso   1.00
Pt765  Pt    0.40313   0.62736   0.53229   0.00000  Uiso   1.00
Pt766  Pt    0.40313   0.37264   0.53229   0.00000  Uiso   1.00
Pt767  Pt    0.53229   0.37264   0.40313   0.00000  Uiso   1.00
Pt768  Pt    0.53229   0.62736   0.40313   0.00000  Uiso   1.00
Pt769  Pt    0.40313   0.62736   0.46771   0.00000  Uiso   1.00
Pt770  Pt    0.40313   0.37264   0.46771   0.00000  Uiso   1.00
Pt771  Pt    0.46771   0.37264   0.40313   0.00000  Uiso   1.00
Pt772  Pt    0.46771   0.62736   0.40313   0.00000  Uiso   1.00
Pt773  Pt    0.66144   0.50000   0.53229   0.00000  Uiso   1.00
Pt774  Pt    0.53229   0.50000   0.66144   0.00000  Uiso   1.00
Pt775  Pt    0.66144   0.50000   0.46771   0.00000  Uiso   1.00
Pt776  Pt    0.46771   0.50000   0.66144   0.00000  Uiso   1.00
Pt777  Pt    0.53229   0.50000   0.33856   0.00000  Uiso   1.00
Pt778  Pt    0.33856   0.50000   0.53229   0.00000  Uiso   1.00
Pt779  Pt    0.33856   0.50000   0.46771   0.00000  Uiso   1.00
Pt780  Pt    0.46771   0.50000   0.33856   0.00000  Uiso   1.00
Pt781  Pt    0.66144   0.46538   0.50000   0.00000  Uiso   1.00
Pt782  Pt    0.50000   0.46538   0.66144   0.00000  Uiso   1.00
Pt783  Pt    0.59687   0.46538   0.37085   0.00000  Uiso   1.00
Pt784  Pt    0.59687   0.46538   0.62915   0.00000  Uiso   1.00
Pt785  Pt    0.37085   0.46538   0.59687   0.00000  Uiso   1.00
Pt786  Pt    0.62915   0.46538   0.59687   0.00000  Uiso   1.00
Pt787  Pt    0.66144   0.53462   0.50000   0.00000  Uiso   1.00
Pt788  Pt    0.50000   0.53462   0.66144   0.00000  Uiso   1.00
Pt789  Pt    0.59687   0.53462   0.37085   0.00000  Uiso   1.00
Pt790  Pt    0.59687   0.53462   0.62915   0.00000  Uiso   1.00
Pt791  Pt    0.62915   0.53462   0.59687   0.00000  Uiso   1.00
Pt792  Pt    0.37085   0.53462   0.59687   0.00000  Uiso   1.00
Pt793  Pt    0.62915   0.46538   0.40313   0.00000  Uiso   1.00
Pt794  Pt    0.40313   0.46538   0.37085   0.00000  Uiso   1.00
Pt795  Pt    0.37085   0.46538   0.40313   0.00000  Uiso   1.00
Pt796  Pt    0.40313   0.46538   0.62915   0.00000  Uiso   1.00
Pt797  Pt    0.50000   0.46538   0.33856   0.00000  Uiso   1.00
Pt798  Pt    0.33856   0.46538   0.50000   0.00000  Uiso   1.00
Pt799  Pt    0.62915   0.53462   0.40313   0.00000  Uiso   1.00
Pt800  Pt    0.40313   0.53462   0.37085   0.00000  Uiso   1.00
Pt801  Pt    0.40313   0.53462   0.62915   0.00000  Uiso   1.00
Pt802  Pt    0.37085   0.53462   0.40313   0.00000  Uiso   1.00
Pt803  Pt    0.33856   0.53462   0.50000   0.00000  Uiso   1.00
Pt804  Pt    0.50000   0.53462   0.33856   0.00000  Uiso   1.00
Pt805  Pt    0.53229   0.33802   0.50000   0.00000  Uiso   1.00
Pt806  Pt    0.50000   0.33802   0.53229   0.00000  Uiso   1.00
Pt807  Pt    0.46771   0.33802   0.50000   0.00000  Uiso   1.00
Pt808  Pt    0.50000   0.33802   0.46771   0.00000  Uiso   1.00
Pt809  Pt    0.53229   0.66198   0.50000   0.00000  Uiso   1.00
Pt810  Pt    0.50000   0.66198   0.53229   0.00000  Uiso   1.00
Pt811  Pt    0.46771   0.66198   0.50000   0.00000  Uiso   1.00
Pt812  Pt    0.50000   0.66198   0.46771   0.00000  Uiso   1.00
Pt813  Pt    0.66144   0.46538   0.43542   0.00000  Uiso   1.00
Pt814  Pt    0.66144   0.46538   0.56458   0.00000  Uiso   1.00
Pt815  Pt    0.56458   0.46538   0.66144   0.00000  Uiso   1.00
Pt816  Pt    0.43542   0.46538   0.66144   0.00000  Uiso   1.00
Pt817  Pt    0.66144   0.53462   0.43542   0.00000  Uiso   1.00
Pt818  Pt    0.66144   0.53462   0.56458   0.00000  Uiso   1.00
Pt819  Pt    0.43542   0.53462   0.66144   0.00000  Uiso   1.00
Pt820  Pt    0.56458   0.53462   0.66144   0.00000  Uiso   1.00
Pt821  Pt    0.56458   0.46538   0.33856   0.00000  Uiso   1.00
Pt822  Pt    0.33856   0.46538   0.43542   0.00000  Uiso   1.00
Pt823  Pt    0.43542   0.46538   0.33856   0.00000  Uiso   1.00
Pt824  Pt    0.33856   0.46538   0.56458   0.00000  Uiso   1.00
Pt825  Pt    0.33856   0.53462   0.43542   0.00000  Uiso   1.00
Pt826  Pt    0.56458   0.53462   0.33856   0.00000  Uiso   1.00
Pt827  Pt    0.33856   0.53462   0.56458   0.00000  Uiso   1.00
Pt828  Pt    0.43542   0.53462   0.33856   0.00000  Uiso   1.00
Pt829  Pt    0.53229   0.33802   0.43542   0.00000  Uiso   1.00
Pt830  Pt    0.43542   0.33802   0.53229   0.00000  Uiso   1.00
Pt831  Pt    0.53229   0.33802   0.56458   0.00000  Uiso   1.00
Pt832  Pt    0.56458   0.33802   0.53229   0.00000  Uiso   1.00
Pt833  Pt    0.46771   0.33802   0.56458   0.00000  Uiso   1.00
Pt834  Pt    0.56458   0.33802   0.46771   0.00000  Uiso   1.00
Pt835  Pt    0.46771   0.33802   0.43542   0.00000  Uiso   1.00
Pt836  Pt    0.43542   0.33802   0.46771   0.00000  Uiso   1.00
Pt837  Pt    0.53229   0.66198   0.56458   0.00000  Uiso   1.00
Pt838  Pt    0.53229   0.66198   0.43542   0.00000  Uiso   1.00
Pt839  Pt    0.43542   0.66198   0.53229   0.00000  Uiso   1.00
Pt840  Pt    0.56458   0.66198   0.53229   0.00000  Uiso   1.00
Pt841  Pt    0.46771   0.66198   0.56458   0.00000  Uiso   1.00
Pt842  Pt    0.46771   0.66198   0.43542   0.00000  Uiso   1.00
Pt843  Pt    0.56458   0.66198   0.46771   0.00000  Uiso   1.00
Pt844  Pt    0.43542   0.66198   0.46771   0.00000  Uiso   1.00
Pt845  Pt    0.37085   0.37264   0.50000   0.00000  Uiso   1.00
Pt846  Pt    0.37085   0.62736   0.50000   0.00000  Uiso   1.00
Pt847  Pt    0.50000   0.37264   0.37085   0.00000  Uiso   1.00
Pt848  Pt    0.50000   0.62736   0.62915   0.00000  Uiso   1.00
Pt849  Pt    0.62915   0.37264   0.50000   0.00000  Uiso   1.00
Pt850  Pt    0.50000   0.37264   0.62915   0.00000  Uiso   1.00
Pt851  Pt    0.50000   0.62736   0.37085   0.00000  Uiso   1.00
Pt852  Pt    0.62915   0.62736   0.50000   0.00000  Uiso   1.00
Pt853  Pt    0.62915   0.50000   0.37085   0.00000  Uiso   1.00
Pt854  Pt    0.37085   0.50000   0.37085   0.00000  Uiso   1.00
Pt855  Pt    0.37085   0.50000   0.62915   0.00000  Uiso   1.00
Pt856  Pt    0.62915   0.50000   0.62915   0.00000  Uiso   1.00
Pt857  Pt    0.50000   0.40726   0.66144   0.00000  Uiso   1.00
Pt858  Pt    0.66144   0.40726   0.50000   0.00000  Uiso   1.00
Pt859  Pt    0.59687   0.40726   0.37085   0.00000  Uiso   1.00
Pt860  Pt    0.62915   0.40726   0.59687   0.00000  Uiso   1.00
Pt861  Pt    0.37085   0.40726   0.59687   0.00000  Uiso   1.00
Pt862  Pt    0.59687   0.40726   0.62915   0.00000  Uiso   1.00
Pt863  Pt    0.66144   0.59274   0.50000   0.00000  Uiso   1.00
Pt864  Pt    0.50000   0.59274   0.66144   0.00000  Uiso   1.00
Pt865  Pt    0.62915   0.59274   0.59687   0.00000  Uiso   1.00
Pt866  Pt    0.59687   0.59274   0.37085   0.00000  Uiso   1.00
Pt867  Pt    0.59687   0.59274   0.62915   0.00000  Uiso   1.00
Pt868  Pt    0.37085   0.59274   0.59687   0.00000  Uiso   1.00
Pt869  Pt    0.62915   0.40726   0.40313   0.00000  Uiso   1.00
Pt870  Pt    0.37085   0.40726   0.40313   0.00000  Uiso   1.00
Pt871  Pt    0.40313   0.40726   0.62915   0.00000  Uiso   1.00
Pt872  Pt    0.40313   0.40726   0.37085   0.00000  Uiso   1.00
Pt873  Pt    0.50000   0.40726   0.33856   0.00000  Uiso   1.00
Pt874  Pt    0.33856   0.40726   0.50000   0.00000  Uiso   1.00
Pt875  Pt    0.40313   0.59274   0.37085   0.00000  Uiso   1.00
Pt876  Pt    0.62915   0.59274   0.40313   0.00000  Uiso   1.00
Pt877  Pt    0.40313   0.59274   0.62915   0.00000  Uiso   1.00
Pt878  Pt    0.37085   0.59274   0.40313   0.00000  Uiso   1.00
Pt879  Pt    0.50000   0.59274   0.33856   0.00000  Uiso   1.00
Pt880  Pt    0.33856   0.59274   0.50000   0.00000  Uiso   1.00
Pt881  Pt    0.59687   0.62736   0.59687   0.00000  Uiso   1.00
Pt882  Pt    0.59687   0.37264   0.59687   0.00000  Uiso   1.00
Pt883  Pt    0.59687   0.37264   0.40313   0.00000  Uiso   1.00
Pt884  Pt    0.40313   0.37264   0.59687   0.00000  Uiso   1.00
Pt885  Pt    0.40313   0.62736   0.59687   0.00000  Uiso   1.00
Pt886  Pt    0.59687   0.62736   0.40313   0.00000  Uiso   1.00
Pt887  Pt    0.40313   0.62736   0.40313   0.00000  Uiso   1.00
Pt888  Pt    0.40313   0.37264   0.40313   0.00000  Uiso   1.00
Pt889  Pt    0.66144   0.50000   0.59687   0.00000  Uiso   1.00
Pt890  Pt    0.59687   0.50000   0.66144   0.00000  Uiso   1.00
Pt891  Pt    0.66144   0.50000   0.40313   0.00000  Uiso   1.00
Pt892  Pt    0.40313   0.50000   0.66144   0.00000  Uiso   1.00
Pt893  Pt    0.59687   0.50000   0.33856   0.00000  Uiso   1.00
Pt894  Pt    0.33856   0.50000   0.59687   0.00000  Uiso   1.00
Pt895  Pt    0.33856   0.50000   0.40313   0.00000  Uiso   1.00
Pt896  Pt    0.40313   0.50000   0.33856   0.00000  Uiso   1.00
Pt897  Pt    0.59687   0.33802   0.50000   0.00000  Uiso   1.00
Pt898  Pt    0.50000   0.33802   0.59687   0.00000  Uiso   1.00
Pt899  Pt    0.40313   0.33802   0.50000   0.00000  Uiso   1.00
Pt900  Pt    0.50000   0.33802   0.40313   0.00000  Uiso   1.00
Pt901  Pt    0.59687   0.66198   0.50000   0.00000  Uiso   1.00
Pt902  Pt    0.50000   0.66198   0.59687   0.00000  Uiso   1.00
Pt903  Pt    0.40313   0.66198   0.50000   0.00000  Uiso   1.00
Pt904  Pt    0.50000   0.66198   0.40313   0.00000  Uiso   1.00
Pt905  Pt    0.56458   0.37264   0.37085   0.00000  Uiso   1.00
Pt906  Pt    0.62915   0.37264   0.43542   0.00000  Uiso   1.00
Pt907  Pt    0.43542   0.62736   0.37085   0.00000  Uiso   1.00
Pt908  Pt    0.43542   0.37264   0.37085   0.00000  Uiso   1.00
Pt909  Pt    0.37085   0.62736   0.43542   0.00000  Uiso   1.00
Pt910  Pt    0.37085   0.37264   0.43542   0.00000  Uiso   1.00
Pt911  Pt    0.56458   0.62736   0.37085   0.00000  Uiso   1.00
Pt912  Pt    0.62915   0.62736   0.43542   0.00000  Uiso   1.00
Pt913  Pt    0.56458   0.37264   0.62915   0.00000  Uiso   1.00
Pt914  Pt    0.62915   0.62736   0.56458   0.00000  Uiso   1.00
Pt915  Pt    0.43542   0.62736   0.62915   0.00000  Uiso   1.00
Pt916  Pt    0.37085   0.62736   0.56458   0.00000  Uiso   1.00
Pt917  Pt    0.37085   0.37264   0.56458   0.00000  Uiso   1.00
Pt918  Pt    0.43542   0.37264   0.62915   0.00000  Uiso   1.00
Pt919  Pt    0.56458   0.62736   0.62915   0.00000  Uiso   1.00
Pt920  Pt    0.62915   0.37264   0.56458   0.00000  Uiso   1.00
Pt921  Pt    0.50000   0.50000   0.30627   0.00000  Uiso   1.00
Pt922  Pt    0.69373   0.50000   0.50000   0.00000  Uiso   1.00
Pt923  Pt    0.50000   0.50000   0.69373   0.00000  Uiso   1.00
Pt924  Pt    0.30627   0.50000   0.50000   0.00000  Uiso   1.00
Pt925  Pt    0.66144   0.40726   0.43542   0.00000  Uiso   1.00
Pt926  Pt    0.56458   0.40726   0.66144   0.00000  Uiso   1.00
Pt927  Pt    0.66144   0.40726   0.56458   0.00000  Uiso   1.00
Pt928  Pt    0.43542   0.40726   0.66144   0.00000  Uiso   1.00
Pt929  Pt    0.66144   0.59274   0.43542   0.00000  Uiso   1.00
Pt930  Pt    0.66144   0.59274   0.56458   0.00000  Uiso   1.00
Pt931  Pt    0.56458   0.59274   0.66144   0.00000  Uiso   1.00
Pt932  Pt    0.43542   0.59274   0.66144   0.00000  Uiso   1.00
Pt933  Pt    0.56458   0.40726   0.33856   0.00000  Uiso   1.00
Pt934  Pt    0.43542   0.40726   0.33856   0.00000  Uiso   1.00
Pt935  Pt    0.33856   0.40726   0.43542   0.00000  Uiso   1.00
Pt936  Pt    0.33856   0.40726   0.56458   0.00000  Uiso   1.00
Pt937  Pt    0.56458   0.59274   0.33856   0.00000  Uiso   1.00
Pt938  Pt    0.43542   0.59274   0.33856   0.00000  Uiso   1.00
Pt939  Pt    0.33856   0.59274   0.43542   0.00000  Uiso   1.00
Pt940  Pt    0.33856   0.59274   0.56458   0.00000  Uiso   1.00
Pt941  Pt    0.53229   0.46538   0.30627   0.00000  Uiso   1.00
Pt942  Pt    0.53229   0.46538   0.69373   0.00000  Uiso   1.00
Pt943  Pt    0.30627   0.46538   0.53229   0.00000  Uiso   1.00
Pt944  Pt    0.69373   0.46538   0.53229   0.00000  Uiso   1.00
Pt945  Pt    0.46771   0.46538   0.30627   0.00000  Uiso   1.00
Pt946  Pt    0.30627   0.46538   0.46771   0.00000  Uiso   1.00
Pt947  Pt    0.69373   0.46538   0.46771   0.00000  Uiso   1.00
Pt948  Pt    0.46771   0.46538   0.69373   0.00000  Uiso   1.00
Pt949  Pt    0.53229   0.53462   0.30627   0.00000  Uiso   1.00
Pt950  Pt    0.53229   0.53462   0.69373   0.00000  Uiso   1.00
Pt951  Pt    0.30627   0.53462   0.53229   0.00000  Uiso   1.00
Pt952  Pt    0.69373   0.53462   0.53229   0.00000  Uiso   1.00
Pt953  Pt    0.46771   0.53462   0.30627   0.00000  Uiso   1.00
Pt954  Pt    0.46771   0.53462   0.69373   0.00000  Uiso   1.00
Pt955  Pt    0.30627   0.53462   0.46771   0.00000  Uiso   1.00
Pt956  Pt    0.69373   0.53462   0.46771   0.00000  Uiso   1.00
Pt957  Pt    0.59687   0.33802   0.43542   0.00000  Uiso   1.00
Pt958  Pt    0.59687   0.33802   0.56458   0.00000  Uiso   1.00
Pt959  Pt    0.56458   0.33802   0.59687   0.00000  Uiso   1.00
Pt960  Pt    0.43542   0.33802   0.59687   0.00000  Uiso   1.00
Pt961  Pt    0.56458   0.33802   0.40313   0.00000  Uiso   1.00
Pt962  Pt    0.40313   0.33802   0.43542   0.00000  Uiso   1.00
Pt963  Pt    0.40313   0.33802   0.56458   0.00000  Uiso   1.00
Pt964  Pt    0.43542   0.33802   0.40313   0.00000  Uiso   1.00
Pt965  Pt    0.59687   0.66198   0.43542   0.00000  Uiso   1.00
Pt966  Pt    0.59687   0.66198   0.56458   0.00000  Uiso   1.00
Pt967  Pt    0.43542   0.66198   0.59687   0.00000  Uiso   1.00
Pt968  Pt    0.56458   0.66198   0.59687   0.00000  Uiso   1.00
Pt969  Pt    0.40313   0.66198   0.43542   0.00000  Uiso   1.00
Pt970  Pt    0.40313   0.66198   0.56458   0.00000  Uiso   1.00
Pt971  Pt    0.56458   0.66198   0.40313   0.00000  Uiso   1.00
Pt972  Pt    0.43542   0.66198   0.40313   0.00000  Uiso   1.00
Pt973  Pt    0.56458   0.50000   0.30627   0.00000  Uiso   1.00
Pt974  Pt    0.43542   0.50000   0.30627   0.00000  Uiso   1.00
Pt975  Pt    0.69373   0.50000   0.56458   0.00000  Uiso   1.00
Pt976  Pt    0.30627   0.50000   0.43542   0.00000  Uiso   1.00
Pt977  Pt    0.56458   0.50000   0.69373   0.00000  Uiso   1.00
Pt978  Pt    0.69373   0.50000   0.43542   0.00000  Uiso   1.00
Pt979  Pt    0.43542   0.50000   0.69373   0.00000  Uiso   1.00
Pt980  Pt    0.30627   0.50000   0.56458   0.00000  Uiso   1.00
Pt981  Pt    0.66144   0.37264   0.53229   0.00000  Uiso   1.00
Pt982  Pt    0.53229   0.62736   0.66144   0.00000  Uiso   1.00
Pt983  Pt    0.53229   0.37264   0.66144   0.00000  Uiso   1.00
Pt984  Pt    0.66144   0.62736   0.53229   0.00000  Uiso   1.00
Pt985  Pt    0.66144   0.37264   0.46771   0.00000  Uiso   1.00
Pt986  Pt    0.66144   0.62736   0.46771   0.00000  Uiso   1.00
Pt987  Pt    0.46771   0.62736   0.66144   0.00000  Uiso   1.00
Pt988  Pt    0.46771   0.37264   0.66144   0.00000  Uiso   1.00
Pt989  Pt    0.53229   0.37264   0.33856   0.00000  Uiso   1.00
Pt990  Pt    0.33856   0.37264   0.53229   0.00000  Uiso   1.00
Pt991  Pt    0.33856   0.62736   0.53229   0.00000  Uiso   1.00
Pt992  Pt    0.53229   0.62736   0.33856   0.00000  Uiso   1.00
Pt993  Pt    0.33856   0.62736   0.46771   0.00000  Uiso   1.00
Pt994  Pt    0.33856   0.37264   0.46771   0.00000  Uiso   1.00
Pt995  Pt    0.46771   0.37264   0.33856   0.00000  Uiso   1.00
Pt996  Pt    0.46771   0.62736   0.33856   0.00000  Uiso   1.00
Pt997  Pt    0.66144   0.46538   0.37085   0.00000  Uiso   1.00
Pt998  Pt    0.66144   0.46538   0.62915   0.00000  Uiso   1.00
Pt999  Pt    0.37085   0.46538   0.66144   0.00000  Uiso   1.00
Pt1000 Pt    0.62915   0.46538   0.66144   0.00000  Uiso   1.00
Pt1001 Pt    0.66144   0.53462   0.37085   0.00000  Uiso   1.00
Pt1002 Pt    0.66144   0.53462   0.62915   0.00000  Uiso   1.00
Pt1003 Pt    0.62915   0.53462   0.66144   0.00000  Uiso   1.00
Pt1004 Pt    0.37085   0.53462   0.66144   0.00000  Uiso   1.00
Pt1005 Pt    0.62915   0.46538   0.33856   0.00000  Uiso   1.00
Pt1006 Pt    0.33856   0.46538   0.37085   0.00000  Uiso   1.00
Pt1007 Pt    0.37085   0.46538   0.33856   0.00000  Uiso   1.00
Pt1008 Pt    0.33856   0.46538   0.62915   0.00000  Uiso   1.00
Pt1009 Pt    0.33856   0.53462   0.37085   0.00000  Uiso   1.00
Pt1010 Pt    0.62915   0.53462   0.33856   0.00000  Uiso   1.00
Pt1011 Pt    0.33856   0.53462   0.62915   0.00000  Uiso   1.00
Pt1012 Pt    0.37085   0.53462   0.33856   0.00000  Uiso   1.00
Pt1013 Pt    0.53229   0.33802   0.37085   0.00000  Uiso   1.00
Pt1014 Pt    0.37085   0.33802   0.53229   0.00000  Uiso   1.00
Pt1015 Pt    0.53229   0.33802   0.62915   0.00000  Uiso   1.00
Pt1016 Pt    0.62915   0.33802   0.53229   0.00000  Uiso   1.00
Pt1017 Pt    0.46771   0.33802   0.37085   0.00000  Uiso   1.00
Pt1018 Pt    0.46771   0.33802   0.62915   0.00000  Uiso   1.00
Pt1019 Pt    0.62915   0.33802   0.46771   0.00000  Uiso   1.00
Pt1020 Pt    0.37085   0.33802   0.46771   0.00000  Uiso   1.00
Pt1021 Pt    0.53229   0.66198   0.62915   0.00000  Uiso   1.00
Pt1022 Pt    0.53229   0.66198   0.37085   0.00000  Uiso   1.00
Pt1023 Pt    0.62915   0.66198   0.53229   0.00000  Uiso   1.00
Pt1024 Pt    0.37085   0.66198   0.53229   0.00000  Uiso   1.00
Pt1025 Pt    0.46771   0.66198   0.62915   0.00000  Uiso   1.00
Pt1026 Pt    0.46771   0.66198   0.37085   0.00000  Uiso   1.00
Pt1027 Pt    0.37085   0.66198   0.46771   0.00000  Uiso   1.00
Pt1028 Pt    0.62915   0.66198   0.46771   0.00000  Uiso   1.00
Pt1029 Pt    0.69373   0.40726   0.53229   0.00000  Uiso   1.00
Pt1030 Pt    0.30627   0.40726   0.53229   0.00000  Uiso   1.00
Pt1031 Pt    0.53229   0.40726   0.30627   0.00000  Uiso   1.00
Pt1032 Pt    0.53229   0.40726   0.69373   0.00000  Uiso   1.00
Pt1033 Pt    0.46771   0.40726   0.30627   0.00000  Uiso   1.00
Pt1034 Pt    0.30627   0.40726   0.46771   0.00000  Uiso   1.00
Pt1035 Pt    0.69373   0.40726   0.46771   0.00000  Uiso   1.00
Pt1036 Pt    0.46771   0.40726   0.69373   0.00000  Uiso   1.00
Pt1037 Pt    0.53229   0.59274   0.30627   0.00000  Uiso   1.00
Pt1038 Pt    0.69373   0.59274   0.53229   0.00000  Uiso   1.00
Pt1039 Pt    0.53229   0.59274   0.69373   0.00000  Uiso   1.00
Pt1040 Pt    0.30627   0.59274   0.53229   0.00000  Uiso   1.00
Pt1041 Pt    0.46771   0.59274   0.30627   0.00000  Uiso   1.00
Pt1042 Pt    0.69373   0.59274   0.46771   0.00000  Uiso   1.00
Pt1043 Pt    0.30627   0.59274   0.46771   0.00000  Uiso   1.00
Pt1044 Pt    0.46771   0.59274   0.69373   0.00000  Uiso   1.00
Pt1045 Pt    0.59687   0.46538   0.30627   0.00000  Uiso   1.00
Pt1046 Pt    0.59687   0.46538   0.69373   0.00000  Uiso   1.00
Pt1047 Pt    0.30627   0.46538   0.59687   0.00000  Uiso   1.00
Pt1048 Pt    0.69373   0.46538   0.59687   0.00000  Uiso   1.00
Pt1049 Pt    0.59687   0.53462   0.30627   0.00000  Uiso   1.00
Pt1050 Pt    0.59687   0.53462   0.69373   0.00000  Uiso   1.00
Pt1051 Pt    0.69373   0.53462   0.59687   0.00000  Uiso   1.00
Pt1052 Pt    0.30627   0.53462   0.59687   0.00000  Uiso   1.00
Pt1053 Pt    0.40313   0.46538   0.30627   0.00000  Uiso   1.00
Pt1054 Pt    0.30627   0.46538   0.40313   0.00000  Uiso   1.00
Pt1055 Pt    0.40313   0.46538   0.69373   0.00000  Uiso   1.00
Pt1056 Pt    0.69373   0.46538   0.40313   0.00000  Uiso   1.00
Pt1057 Pt    0.40313   0.53462   0.30627   0.00000  Uiso   1.00
Pt1058 Pt    0.30627   0.53462   0.40313   0.00000  Uiso   1.00
Pt1059 Pt    0.40313   0.53462   0.69373   0.00000  Uiso   1.00
Pt1060 Pt    0.69373   0.53462   0.40313   0.00000  Uiso   1.00
Pt1061 Pt    0.50000   0.27990   0.53229   0.00000  Uiso   1.00
Pt1062 Pt    0.53229   0.27990   0.50000   0.00000  Uiso   1.00
Pt1063 Pt    0.50000   0.27990   0.46771   0.00000  Uiso   1.00
Pt1064 Pt    0.46771   0.27990   0.50000   0.00000  Uiso   1.00
Pt1065 Pt    0.50000   0.72010   0.53229   0.00000  Uiso   1.00
Pt1066 Pt    0.53229   0.72010   0.50000   0.00000  Uiso   1.00
Pt1067 Pt    0.50000   0.72010   0.46771   0.00000  Uiso   1.00
Pt1068 Pt    0.46771   0.72010   0.50000   0.00000  Uiso   1.00
Pt1069 Pt    0.62915   0.37264   0.37085   0.00000  Uiso   1.00
Pt1070 Pt    0.37085   0.62736   0.37085   0.00000  Uiso   1.00
Pt1071 Pt    0.37085   0.37264   0.37085   0.00000  Uiso   1.00
Pt1072 Pt    0.37085   0.37264   0.62915   0.00000  Uiso   1.00
Pt1073 Pt    0.62915   0.37264   0.62915   0.00000  Uiso   1.00
Pt1074 Pt    0.62915   0.62736   0.62915   0.00000  Uiso   1.00
Pt1075 Pt    0.37085   0.62736   0.62915   0.00000  Uiso   1.00
Pt1076 Pt    0.62915   0.62736   0.37085   0.00000  Uiso   1.00
Pt1077 Pt    0.66144   0.40726   0.37085   0.00000  Uiso   1.00
Pt1078 Pt    0.62915   0.40726   0.66144   0.00000  Uiso   1.00
Pt1079 Pt    0.66144   0.40726   0.62915   0.00000  Uiso   1.00
Pt1080 Pt    0.37085   0.40726   0.66144   0.00000  Uiso   1.00
Pt1081 Pt    0.66144   0.59274   0.62915   0.00000  Uiso   1.00
Pt1082 Pt    0.66144   0.59274   0.37085   0.00000  Uiso   1.00
Pt1083 Pt    0.62915   0.59274   0.66144   0.00000  Uiso   1.00
Pt1084 Pt    0.37085   0.59274   0.66144   0.00000  Uiso   1.00
Pt1085 Pt    0.62915   0.40726   0.33856   0.00000  Uiso   1.00
Pt1086 Pt    0.37085   0.40726   0.33856   0.00000  Uiso   1.00
Pt1087 Pt    0.33856   0.40726   0.37085   0.00000  Uiso   1.00
Pt1088 Pt    0.33856   0.40726   0.62915   0.00000  Uiso   1.00
Pt1089 Pt    0.37085   0.59274   0.33856   0.00000  Uiso   1.00
Pt1090 Pt    0.62915   0.59274   0.33856   0.00000  Uiso   1.00
Pt1091 Pt    0.33856   0.59274   0.37085   0.00000  Uiso   1.00
Pt1092 Pt    0.33856   0.59274   0.62915   0.00000  Uiso   1.00
Pt1093 Pt    0.66144   0.37264   0.59687   0.00000  Uiso   1.00
Pt1094 Pt    0.59687   0.37264   0.66144   0.00000  Uiso   1.00
Pt1095 Pt    0.59687   0.62736   0.66144   0.00000  Uiso   1.00
Pt1096 Pt    0.66144   0.62736   0.59687   0.00000  Uiso   1.00
Pt1097 Pt    0.66144   0.37264   0.40313   0.00000  Uiso   1.00
Pt1098 Pt    0.40313   0.62736   0.66144   0.00000  Uiso   1.00
Pt1099 Pt    0.40313   0.37264   0.66144   0.00000  Uiso   1.00
Pt1100 Pt    0.66144   0.62736   0.40313   0.00000  Uiso   1.00
Pt1101 Pt    0.59687   0.37264   0.33856   0.00000  Uiso   1.00
Pt1102 Pt    0.33856   0.62736   0.59687   0.00000  Uiso   1.00
Pt1103 Pt    0.33856   0.37264   0.59687   0.00000  Uiso   1.00
Pt1104 Pt    0.59687   0.62736   0.33856   0.00000  Uiso   1.00
Pt1105 Pt    0.33856   0.37264   0.40313   0.00000  Uiso   1.00
Pt1106 Pt    0.33856   0.62736   0.40313   0.00000  Uiso   1.00
Pt1107 Pt    0.40313   0.62736   0.33856   0.00000  Uiso   1.00
Pt1108 Pt    0.40313   0.37264   0.33856   0.00000  Uiso   1.00
Pt1109 Pt    0.66144   0.50000   0.66144   0.00000  Uiso   1.00
Pt1110 Pt    0.72602   0.50000   0.53229   0.00000  Uiso   1.00
Pt1111 Pt    0.53229   0.50000   0.72602   0.00000  Uiso   1.00
Pt1112 Pt    0.72602   0.50000   0.46771   0.00000  Uiso   1.00
Pt1113 Pt    0.46771   0.50000   0.72602   0.00000  Uiso   1.00
Pt1114 Pt    0.66144   0.50000   0.33856   0.00000  Uiso   1.00
Pt1115 Pt    0.33856   0.50000   0.66144   0.00000  Uiso   1.00
Pt1116 Pt    0.53229   0.50000   0.27398   0.00000  Uiso   1.00
Pt1117 Pt    0.27398   0.50000   0.53229   0.00000  Uiso   1.00
Pt1118 Pt    0.46771   0.50000   0.27398   0.00000  Uiso   1.00
Pt1119 Pt    0.27398   0.50000   0.46771   0.00000  Uiso   1.00
Pt1120 Pt    0.33856   0.50000   0.33856   0.00000  Uiso   1.00
Pt1121 Pt    0.72602   0.46538   0.50000   0.00000  Uiso   1.00
Pt1122 Pt    0.50000   0.46538   0.72602   0.00000  Uiso   1.00
Pt1123 Pt    0.72602   0.53462   0.50000   0.00000  Uiso   1.00
Pt1124 Pt    0.50000   0.53462   0.72602   0.00000  Uiso   1.00
Pt1125 Pt    0.50000   0.46538   0.27398   0.00000  Uiso   1.00
Pt1126 Pt    0.27398   0.46538   0.50000   0.00000  Uiso   1.00
Pt1127 Pt    0.27398   0.53462   0.50000   0.00000  Uiso   1.00
Pt1128 Pt    0.50000   0.53462   0.27398   0.00000  Uiso   1.00
Pt1129 Pt    0.66144   0.33802   0.50000   0.00000  Uiso   1.00
Pt1130 Pt    0.50000   0.33802   0.66144   0.00000  Uiso   1.00
Pt1131 Pt    0.59687   0.33802   0.37085   0.00000  Uiso   1.00
Pt1132 Pt    0.59687   0.33802   0.62915   0.00000  Uiso   1.00
Pt1133 Pt    0.62915   0.33802   0.59687   0.00000  Uiso   1.00
Pt1134 Pt    0.37085   0.33802   0.59687   0.00000  Uiso   1.00
Pt1135 Pt    0.62915   0.33802   0.40313   0.00000  Uiso   1.00
Pt1136 Pt    0.40313   0.33802   0.37085   0.00000  Uiso   1.00
Pt1137 Pt    0.37085   0.33802   0.40313   0.00000  Uiso   1.00
Pt1138 Pt    0.40313   0.33802   0.62915   0.00000  Uiso   1.00
Pt1139 Pt    0.66144   0.66198   0.50000   0.00000  Uiso   1.00
Pt1140 Pt    0.50000   0.66198   0.66144   0.00000  Uiso   1.00
Pt1141 Pt    0.50000   0.33802   0.33856   0.00000  Uiso   1.00
Pt1142 Pt    0.33856   0.33802   0.50000   0.00000  Uiso   1.00
Pt1143 Pt    0.59687   0.66198   0.62915   0.00000  Uiso   1.00
Pt1144 Pt    0.59687   0.66198   0.37085   0.00000  Uiso   1.00
Pt1145 Pt    0.37085   0.66198   0.59687   0.00000  Uiso   1.00
Pt1146 Pt    0.62915   0.66198   0.59687   0.00000  Uiso   1.00
Pt1147 Pt    0.40313   0.66198   0.62915   0.00000  Uiso   1.00
Pt1148 Pt    0.40313   0.66198   0.37085   0.00000  Uiso   1.00
Pt1149 Pt    0.62915   0.66198   0.40313   0.00000  Uiso   1.00
Pt1150 Pt    0.37085   0.66198   0.40313   0.00000  Uiso   1.00
Pt1151 Pt    0.33856   0.66198   0.50000   0.00000  Uiso   1.00
Pt1152 Pt    0.50000   0.66198   0.33856   0.00000  Uiso   1.00
Pt1153 Pt    0.43542   0.27990   0.53229   0.00000  Uiso   1.00
Pt1154 Pt    0.56458   0.27990   0.53229   0.00000  Uiso   1.00
Pt1155 Pt    0.53229   0.27990   0.43542   0.00000  Uiso   1.00
Pt1156 Pt    0.53229   0.27990   0.56458   0.00000  Uiso   1.00
Pt1157 Pt    0.56458   0.27990   0.46771   0.00000  Uiso   1.00
Pt1158 Pt    0.43542   0.27990   0.46771   0.00000  Uiso   1.00
Pt1159 Pt    0.46771   0.27990   0.43542   0.00000  Uiso   1.00
Pt1160 Pt    0.46771   0.27990   0.56458   0.00000  Uiso   1.00
Pt1161 Pt    0.43542   0.72010   0.53229   0.00000  Uiso   1.00
Pt1162 Pt    0.53229   0.72010   0.43542   0.00000  Uiso   1.00
Pt1163 Pt    0.56458   0.72010   0.53229   0.00000  Uiso   1.00
Pt1164 Pt    0.53229   0.72010   0.56458   0.00000  Uiso   1.00
Pt1165 Pt    0.46771   0.72010   0.43542   0.00000  Uiso   1.00
Pt1166 Pt    0.56458   0.72010   0.46771   0.00000  Uiso   1.00
Pt1167 Pt    0.46771   0.72010   0.56458   0.00000  Uiso   1.00
Pt1168 Pt    0.43542   0.72010   0.46771   0.00000  Uiso   1.00
Pt1169 Pt    0.50000   0.37264   0.30627   0.00000  Uiso   1.00
Pt1170 Pt    0.50000   0.37264   0.69373   0.00000  Uiso   1.00
Pt1171 Pt    0.69373   0.37264   0.50000   0.00000  Uiso   1.00
Pt1172 Pt    0.50000   0.62736   0.69373   0.00000  Uiso   1.00
Pt1173 Pt    0.30627   0.37264   0.50000   0.00000  Uiso   1.00
Pt1174 Pt    0.30627   0.62736   0.50000   0.00000  Uiso   1.00
Pt1175 Pt    0.50000   0.62736   0.30627   0.00000  Uiso   1.00
Pt1176 Pt    0.69373   0.62736   0.50000   0.00000  Uiso   1.00
Pt1177 Pt    0.62915   0.50000   0.30627   0.00000  Uiso   1.00
Pt1178 Pt    0.30627   0.50000   0.37085   0.00000  Uiso   1.00
Pt1179 Pt    0.69373   0.50000   0.37085   0.00000  Uiso   1.00
Pt1180 Pt    0.37085   0.50000   0.30627   0.00000  Uiso   1.00
Pt1181 Pt    0.37085   0.50000   0.69373   0.00000  Uiso   1.00
Pt1182 Pt    0.62915   0.50000   0.69373   0.00000  Uiso   1.00
Pt1183 Pt    0.69373   0.50000   0.62915   0.00000  Uiso   1.00
Pt1184 Pt    0.30627   0.50000   0.62915   0.00000  Uiso   1.00
Pt1185 Pt    0.59687   0.40726   0.30627   0.00000  Uiso   1.00
Pt1186 Pt    0.30627   0.40726   0.59687   0.00000  Uiso   1.00
Pt1187 Pt    0.69373   0.40726   0.59687   0.00000  Uiso   1.00
Pt1188 Pt    0.59687   0.40726   0.69373   0.00000  Uiso   1.00
Pt1189 Pt    0.59687   0.59274   0.30627   0.00000  Uiso   1.00
Pt1190 Pt    0.69373   0.59274   0.59687   0.00000  Uiso   1.00
Pt1191 Pt    0.59687   0.59274   0.69373   0.00000  Uiso   1.00
Pt1192 Pt    0.30627   0.59274   0.59687   0.00000  Uiso   1.00
Pt1193 Pt    0.30627   0.40726   0.40313   0.00000  Uiso   1.00
Pt1194 Pt    0.69373   0.40726   0.40313   0.00000  Uiso   1.00
Pt1195 Pt    0.40313   0.40726   0.30627   0.00000  Uiso   1.00
Pt1196 Pt    0.40313   0.40726   0.69373   0.00000  Uiso   1.00
Pt1197 Pt    0.40313   0.59274   0.30627   0.00000  Uiso   1.00
Pt1198 Pt    0.30627   0.59274   0.40313   0.00000  Uiso   1.00
Pt1199 Pt    0.69373   0.59274   0.40313   0.00000  Uiso   1.00
Pt1200 Pt    0.40313   0.59274   0.69373   0.00000  Uiso   1.00
Pt1201 Pt    0.72602   0.46538   0.43542   0.00000  Uiso   1.00
Pt1202 Pt    0.72602   0.46538   0.56458   0.00000  Uiso   1.00
Pt1203 Pt    0.43542   0.46538   0.72602   0.00000  Uiso   1.00
Pt1204 Pt    0.56458   0.46538   0.72602   0.00000  Uiso   1.00
Pt1205 Pt    0.72602   0.53462   0.43542   0.00000  Uiso   1.00
Pt1206 Pt    0.72602   0.53462   0.56458   0.00000  Uiso   1.00
Pt1207 Pt    0.56458   0.53462   0.72602   0.00000  Uiso   1.00
Pt1208 Pt    0.43542   0.53462   0.72602   0.00000  Uiso   1.00
Pt1209 Pt    0.56458   0.46538   0.27398   0.00000  Uiso   1.00
Pt1210 Pt    0.43542   0.46538   0.27398   0.00000  Uiso   1.00
Pt1211 Pt    0.27398   0.46538   0.43542   0.00000  Uiso   1.00
Pt1212 Pt    0.27398   0.46538   0.56458   0.00000  Uiso   1.00
Pt1213 Pt    0.56458   0.53462   0.27398   0.00000  Uiso   1.00
Pt1214 Pt    0.27398   0.53462   0.43542   0.00000  Uiso   1.00
Pt1215 Pt    0.43542   0.53462   0.27398   0.00000  Uiso   1.00
Pt1216 Pt    0.27398   0.53462   0.56458   0.00000  Uiso   1.00
Pt1217 Pt    0.66144   0.33802   0.43542   0.00000  Uiso   1.00
Pt1218 Pt    0.66144   0.33802   0.56458   0.00000  Uiso   1.00
Pt1219 Pt    0.43542   0.33802   0.66144   0.00000  Uiso   1.00
Pt1220 Pt    0.56458   0.33802   0.66144   0.00000  Uiso   1.00
Pt1221 Pt    0.66144   0.66198   0.43542   0.00000  Uiso   1.00
Pt1222 Pt    0.66144   0.66198   0.56458   0.00000  Uiso   1.00
Pt1223 Pt    0.56458   0.66198   0.66144   0.00000  Uiso   1.00
Pt1224 Pt    0.43542   0.66198   0.66144   0.00000  Uiso   1.00
Pt1225 Pt    0.56458   0.33802   0.33856   0.00000  Uiso   1.00
Pt1226 Pt    0.33856   0.33802   0.43542   0.00000  Uiso   1.00
Pt1227 Pt    0.33856   0.33802   0.56458   0.00000  Uiso   1.00
Pt1228 Pt    0.43542   0.33802   0.33856   0.00000  Uiso   1.00
Pt1229 Pt    0.33856   0.66198   0.43542   0.00000  Uiso   1.00
Pt1230 Pt    0.33856   0.66198   0.56458   0.00000  Uiso   1.00
Pt1231 Pt    0.56458   0.66198   0.33856   0.00000  Uiso   1.00
Pt1232 Pt    0.43542   0.66198   0.33856   0.00000  Uiso   1.00
Pt1233 Pt    0.50000   0.27990   0.59687   0.00000  Uiso   1.00
Pt1234 Pt    0.59687   0.27990   0.50000   0.00000  Uiso   1.00
Pt1235 Pt    0.50000   0.27990   0.40313   0.00000  Uiso   1.00
Pt1236 Pt    0.40313   0.27990   0.50000   0.00000  Uiso   1.00
Pt1237 Pt    0.59687   0.72010   0.50000   0.00000  Uiso   1.00
Pt1238 Pt    0.50000   0.72010   0.59687   0.00000  Uiso   1.00
Pt1239 Pt    0.40313   0.72010   0.50000   0.00000  Uiso   1.00
Pt1240 Pt    0.50000   0.72010   0.40313   0.00000  Uiso   1.00
Pt1241 Pt    0.56458   0.37264   0.30627   0.00000  Uiso   1.00
Pt1242 Pt    0.43542   0.37264   0.30627   0.00000  Uiso   1.00
Pt1243 Pt    0.43542   0.37264   0.69373   0.00000  Uiso   1.00
Pt1244 Pt    0.30627   0.37264   0.43542   0.00000  Uiso   1.00
Pt1245 Pt    0.69373   0.37264   0.43542   0.00000  Uiso   1.00
Pt1246 Pt    0.43542   0.62736   0.69373   0.00000  Uiso   1.00
Pt1247 Pt    0.69373   0.37264   0.56458   0.00000  Uiso   1.00
Pt1248 Pt    0.56458   0.62736   0.69373   0.00000  Uiso   1.00
Pt1249 Pt    0.56458   0.37264   0.69373   0.00000  Uiso   1.00
Pt1250 Pt    0.30627   0.62736   0.43542   0.00000  Uiso   1.00
Pt1251 Pt    0.43542   0.62736   0.30627   0.00000  Uiso   1.00
Pt1252 Pt    0.30627   0.62736   0.56458   0.00000  Uiso   1.00
Pt1253 Pt    0.30627   0.37264   0.56458   0.00000  Uiso   1.00
Pt1254 Pt    0.56458   0.62736   0.30627   0.00000  Uiso   1.00
Pt1255 Pt    0.69373   0.62736   0.56458   0.00000  Uiso   1.00
Pt1256 Pt    0.69373   0.62736   0.43542   0.00000  Uiso   1.00
Pt1257 Pt    0.50000   0.40726   0.72602   0.00000  Uiso   1.00
Pt1258 Pt    0.72602   0.40726   0.50000   0.00000  Uiso   1.00
Pt1259 Pt    0.72602   0.59274   0.50000   0.00000  Uiso   1.00
Pt1260 Pt    0.50000   0.59274   0.72602   0.00000  Uiso   1.00
Pt1261 Pt    0.50000   0.40726   0.27398   0.00000  Uiso   1.00
Pt1262 Pt    0.27398   0.40726   0.50000   0.00000  Uiso   1.00
Pt1263 Pt    0.50000   0.59274   0.27398   0.00000  Uiso   1.00
Pt1264 Pt    0.27398   0.59274   0.50000   0.00000  Uiso   1.00
Pt1265 Pt    0.72602   0.50000   0.59687   0.00000  Uiso   1.00
Pt1266 Pt    0.59687   0.50000   0.72602   0.00000  Uiso   1.00
Pt1267 Pt    0.72602   0.50000   0.40313   0.00000  Uiso   1.00
Pt1268 Pt    0.40313   0.50000   0.72602   0.00000  Uiso   1.00
Pt1269 Pt    0.59687   0.50000   0.27398   0.00000  Uiso   1.00
Pt1270 Pt    0.27398   0.50000   0.59687   0.00000  Uiso   1.00
Pt1271 Pt    0.40313   0.50000   0.27398   0.00000  Uiso   1.00
Pt1272 Pt    0.27398   0.50000   0.40313   0.00000  Uiso   1.00
Pt1273 Pt    0.56458   0.27990   0.59687   0.00000  Uiso   1.00
Pt1274 Pt    0.43542   0.27990   0.59687   0.00000  Uiso   1.00
Pt1275 Pt    0.59687   0.27990   0.43542   0.00000  Uiso   1.00
Pt1276 Pt    0.59687   0.27990   0.56458   0.00000  Uiso   1.00
Pt1277 Pt    0.56458   0.27990   0.40313   0.00000  Uiso   1.00
Pt1278 Pt    0.43542   0.27990   0.40313   0.00000  Uiso   1.00
Pt1279 Pt    0.40313   0.27990   0.43542   0.00000  Uiso   1.00
Pt1280 Pt    0.40313   0.27990   0.56458   0.00000  Uiso   1.00
Pt1281 Pt    0.59687   0.72010   0.43542   0.00000  Uiso   1.00
Pt1282 Pt    0.59687   0.72010   0.56458   0.00000  Uiso   1.00
Pt1283 Pt    0.56458   0.72010   0.59687   0.00000  Uiso   1.00
Pt1284 Pt    0.43542   0.72010   0.59687   0.00000  Uiso   1.00
Pt1285 Pt    0.56458   0.72010   0.40313   0.00000  Uiso   1.00
Pt1286 Pt    0.40313   0.72010   0.43542   0.00000  Uiso   1.00
Pt1287 Pt    0.40313   0.72010   0.56458   0.00000  Uiso   1.00
Pt1288 Pt    0.43542   0.72010   0.40313   0.00000  Uiso   1.00
Pt1289 Pt    0.72602   0.40726   0.43542   0.00000  Uiso   1.00
Pt1290 Pt    0.72602   0.40726   0.56458   0.00000  Uiso   1.00
Pt1291 Pt    0.56458   0.40726   0.72602   0.00000  Uiso   1.00
Pt1292 Pt    0.43542   0.40726   0.72602   0.00000  Uiso   1.00
Pt1293 Pt    0.72602   0.59274   0.43542   0.00000  Uiso   1.00
Pt1294 Pt    0.72602   0.59274   0.56458   0.00000  Uiso   1.00
Pt1295 Pt    0.56458   0.59274   0.72602   0.00000  Uiso   1.00
Pt1296 Pt    0.43542   0.59274   0.72602   0.00000  Uiso   1.00
Pt1297 Pt    0.56458   0.40726   0.27398   0.00000  Uiso   1.00
Pt1298 Pt    0.43542   0.40726   0.27398   0.00000  Uiso   1.00
Pt1299 Pt    0.27398   0.40726   0.56458   0.00000  Uiso   1.00
Pt1300 Pt    0.27398   0.40726   0.43542   0.00000  Uiso   1.00
Pt1301 Pt    0.56458   0.59274   0.27398   0.00000  Uiso   1.00
Pt1302 Pt    0.27398   0.59274   0.43542   0.00000  Uiso   1.00
Pt1303 Pt    0.43542   0.59274   0.27398   0.00000  Uiso   1.00
Pt1304 Pt    0.27398   0.59274   0.56458   0.00000  Uiso   1.00
Pt1305 Pt    0.66144   0.46538   0.30627   0.00000  Uiso   1.00
Pt1306 Pt    0.66144   0.46538   0.69373   0.00000  Uiso   1.00
Pt1307 Pt    0.69373   0.46538   0.66144   0.00000  Uiso   1.00
Pt1308 Pt    0.30627   0.46538   0.66144   0.00000  Uiso   1.00
Pt1309 Pt    0.66144   0.53462   0.30627   0.00000  Uiso   1.00
Pt1310 Pt    0.66144   0.53462   0.69373   0.00000  Uiso   1.00
Pt1311 Pt    0.69373   0.53462   0.66144   0.00000  Uiso   1.00
Pt1312 Pt    0.30627   0.53462   0.66144   0.00000  Uiso   1.00
Pt1313 Pt    0.33856   0.46538   0.30627   0.00000  Uiso   1.00
Pt1314 Pt    0.69373   0.46538   0.33856   0.00000  Uiso   1.00
Pt1315 Pt    0.30627   0.46538   0.33856   0.00000  Uiso   1.00
Pt1316 Pt    0.33856   0.46538   0.69373   0.00000  Uiso   1.00
Pt1317 Pt    0.33856   0.53462   0.30627   0.00000  Uiso   1.00
Pt1318 Pt    0.30627   0.53462   0.33856   0.00000  Uiso   1.00
Pt1319 Pt    0.33856   0.53462   0.69373   0.00000  Uiso   1.00
Pt1320 Pt    0.69373   0.53462   0.33856   0.00000  Uiso   1.00
Pt1321 Pt    0.53229   0.33802   0.30627   0.00000  Uiso   1.00
Pt1322 Pt    0.69373   0.33802   0.53229   0.00000  Uiso   1.00
Pt1323 Pt    0.30627   0.33802   0.53229   0.00000  Uiso   1.00
Pt1324 Pt    0.53229   0.33802   0.69373   0.00000  Uiso   1.00
Pt1325 Pt    0.46771   0.33802   0.30627   0.00000  Uiso   1.00
Pt1326 Pt    0.30627   0.33802   0.46771   0.00000  Uiso   1.00
Pt1327 Pt    0.69373   0.33802   0.46771   0.00000  Uiso   1.00
Pt1328 Pt    0.46771   0.33802   0.69373   0.00000  Uiso   1.00
Pt1329 Pt    0.53229   0.66198   0.69373   0.00000  Uiso   1.00
Pt1330 Pt    0.53229   0.66198   0.30627   0.00000  Uiso   1.00
Pt1331 Pt    0.69373   0.66198   0.53229   0.00000  Uiso   1.00
Pt1332 Pt    0.30627   0.66198   0.53229   0.00000  Uiso   1.00
Pt1333 Pt    0.46771   0.66198   0.69373   0.00000  Uiso   1.00
Pt1334 Pt    0.46771   0.66198   0.30627   0.00000  Uiso   1.00
Pt1335 Pt    0.69373   0.66198   0.46771   0.00000  Uiso   1.00
Pt1336 Pt    0.30627   0.66198   0.46771   0.00000  Uiso   1.00
Pt1337 Pt    0.50000   0.24528   0.50000   0.00000  Uiso   1.00
Pt1338 Pt    0.50000   0.75472   0.50000   0.00000  Uiso   1.00
Pt1339 Pt    0.37085   0.27990   0.53229   0.00000  Uiso   1.00
Pt1340 Pt    0.62915   0.27990   0.53229   0.00000  Uiso   1.00
Pt1341 Pt    0.53229   0.27990   0.37085   0.00000  Uiso   1.00
Pt1342 Pt    0.53229   0.27990   0.62915   0.00000  Uiso   1.00
Pt1343 Pt    0.37085   0.27990   0.46771   0.00000  Uiso   1.00
Pt1344 Pt    0.62915   0.27990   0.46771   0.00000  Uiso   1.00
Pt1345 Pt    0.46771   0.27990   0.37085   0.00000  Uiso   1.00
Pt1346 Pt    0.46771   0.27990   0.62915   0.00000  Uiso   1.00
Pt1347 Pt    0.53229   0.72010   0.37085   0.00000  Uiso   1.00
Pt1348 Pt    0.37085   0.72010   0.53229   0.00000  Uiso   1.00
Pt1349 Pt    0.53229   0.72010   0.62915   0.00000  Uiso   1.00
Pt1350 Pt    0.62915   0.72010   0.53229   0.00000  Uiso   1.00
Pt1351 Pt    0.46771   0.72010   0.37085   0.00000  Uiso   1.00
Pt1352 Pt    0.37085   0.72010   0.46771   0.00000  Uiso   1.00
Pt1353 Pt    0.46771   0.72010   0.62915   0.00000  Uiso   1.00
Pt1354 Pt    0.62915   0.72010   0.46771   0.00000  Uiso   1.00
Pt1355 Pt    0.50000   0.50000   0.24169   0.00000  Uiso   1.00
Pt1356 Pt    0.75831   0.50000   0.50000   0.00000  Uiso   1.00
Pt1357 Pt    0.24169   0.50000   0.50000   0.00000  Uiso   1.00
Pt1358 Pt    0.50000   0.50000   0.75831   0.00000  Uiso   1.00
Pt1359 Pt    0.53229   0.24528   0.53229   0.00000  Uiso   1.00
Pt1360 Pt    0.53229   0.75472   0.53229   0.00000  Uiso   1.00
Pt1361 Pt    0.46771   0.24528   0.53229   0.00000  Uiso   1.00
Pt1362 Pt    0.53229   0.24528   0.46771   0.00000  Uiso   1.00
Pt1363 Pt    0.46771   0.75472   0.53229   0.00000  Uiso   1.00
Pt1364 Pt    0.53229   0.75472   0.46771   0.00000  Uiso   1.00
Pt1365 Pt    0.46771   0.24528   0.46771   0.00000  Uiso   1.00
Pt1366 Pt    0.46771   0.75472   0.46771   0.00000  Uiso   1.00
Pt1367 Pt    0.66144   0.37264   0.66144   0.00000  Uiso   1.00
Pt1368 Pt    0.66144   0.62736   0.66144   0.00000  Uiso   1.00
Pt1369 Pt    0.72602   0.37264   0.53229   0.00000  Uiso   1.00
Pt1370 Pt    0.53229   0.62736   0.72602   0.00000  Uiso   1.00
Pt1371 Pt    0.53229   0.37264   0.72602   0.00000  Uiso   1.00
Pt1372 Pt    0.72602   0.62736   0.53229   0.00000  Uiso   1.00
Pt1373 Pt    0.72602   0.37264   0.46771   0.00000  Uiso   1.00
Pt1374 Pt    0.46771   0.62736   0.72602   0.00000  Uiso   1.00
Pt1375 Pt    0.46771   0.37264   0.72602   0.00000  Uiso   1.00
Pt1376 Pt    0.72602   0.62736   0.46771   0.00000  Uiso   1.00
Pt1377 Pt    0.66144   0.37264   0.33856   0.00000  Uiso   1.00
Pt1378 Pt    0.33856   0.37264   0.66144   0.00000  Uiso   1.00
Pt1379 Pt    0.33856   0.62736   0.66144   0.00000  Uiso   1.00
Pt1380 Pt    0.66144   0.62736   0.33856   0.00000  Uiso   1.00
Pt1381 Pt    0.53229   0.37264   0.27398   0.00000  Uiso   1.00
Pt1382 Pt    0.27398   0.37264   0.53229   0.00000  Uiso   1.00
Pt1383 Pt    0.27398   0.62736   0.53229   0.00000  Uiso   1.00
Pt1384 Pt    0.53229   0.62736   0.27398   0.00000  Uiso   1.00
Pt1385 Pt    0.46771   0.37264   0.27398   0.00000  Uiso   1.00
Pt1386 Pt    0.46771   0.62736   0.27398   0.00000  Uiso   1.00
Pt1387 Pt    0.27398   0.62736   0.46771   0.00000  Uiso   1.00
Pt1388 Pt    0.27398   0.37264   0.46771   0.00000  Uiso   1.00
Pt1389 Pt    0.33856   0.62736   0.33856   0.00000  Uiso   1.00
Pt1390 Pt    0.33856   0.37264   0.33856   0.00000  Uiso   1.00
Pt1391 Pt    0.72602   0.46538   0.37085   0.00000  Uiso   1.00
Pt1392 Pt    0.72602   0.46538   0.62915   0.00000  Uiso   1.00
Pt1393 Pt    0.62915   0.46538   0.72602   0.00000  Uiso   1.00
Pt1394 Pt    0.37085   0.46538   0.72602   0.00000  Uiso   1.00
Pt1395 Pt    0.72602   0.53462   0.37085   0.00000  Uiso   1.00
Pt1396 Pt    0.72602   0.53462   0.62915   0.00000  Uiso   1.00
Pt1397 Pt    0.62915   0.53462   0.72602   0.00000  Uiso   1.00
Pt1398 Pt    0.37085   0.53462   0.72602   0.00000  Uiso   1.00
Pt1399 Pt    0.53229   0.46538   0.24169   0.00000  Uiso   1.00
Pt1400 Pt    0.75831   0.46538   0.53229   0.00000  Uiso   1.00
Pt1401 Pt    0.53229   0.46538   0.75831   0.00000  Uiso   1.00
Pt1402 Pt    0.24169   0.46538   0.53229   0.00000  Uiso   1.00
Pt1403 Pt    0.46771   0.46538   0.24169   0.00000  Uiso   1.00
Pt1404 Pt    0.75831   0.46538   0.46771   0.00000  Uiso   1.00
Pt1405 Pt    0.24169   0.46538   0.46771   0.00000  Uiso   1.00
Pt1406 Pt    0.46771   0.46538   0.75831   0.00000  Uiso   1.00
Pt1407 Pt    0.53229   0.53462   0.24169   0.00000  Uiso   1.00
Pt1408 Pt    0.53229   0.53462   0.75831   0.00000  Uiso   1.00
Pt1409 Pt    0.75831   0.53462   0.53229   0.00000  Uiso   1.00
Pt1410 Pt    0.24169   0.53462   0.53229   0.00000  Uiso   1.00
Pt1411 Pt    0.46771   0.53462   0.24169   0.00000  Uiso   1.00
Pt1412 Pt    0.24169   0.53462   0.46771   0.00000  Uiso   1.00
Pt1413 Pt    0.46771   0.53462   0.75831   0.00000  Uiso   1.00
Pt1414 Pt    0.75831   0.53462   0.46771   0.00000  Uiso   1.00
Pt1415 Pt    0.62915   0.46538   0.27398   0.00000  Uiso   1.00
Pt1416 Pt    0.37085   0.46538   0.27398   0.00000  Uiso   1.00
Pt1417 Pt    0.27398   0.46538   0.37085   0.00000  Uiso   1.00
Pt1418 Pt    0.27398   0.46538   0.62915   0.00000  Uiso   1.00
Pt1419 Pt    0.62915   0.53462   0.27398   0.00000  Uiso   1.00
Pt1420 Pt    0.27398   0.53462   0.37085   0.00000  Uiso   1.00
Pt1421 Pt    0.37085   0.53462   0.27398   0.00000  Uiso   1.00
Pt1422 Pt    0.27398   0.53462   0.62915   0.00000  Uiso   1.00
Pt1423 Pt    0.66144   0.33802   0.37085   0.00000  Uiso   1.00
Pt1424 Pt    0.66144   0.33802   0.62915   0.00000  Uiso   1.00
Pt1425 Pt    0.37085   0.33802   0.66144   0.00000  Uiso   1.00
Pt1426 Pt    0.62915   0.33802   0.66144   0.00000  Uiso   1.00
Pt1427 Pt    0.66144   0.66198   0.37085   0.00000  Uiso   1.00
Pt1428 Pt    0.66144   0.66198   0.62915   0.00000  Uiso   1.00
Pt1429 Pt    0.62915   0.66198   0.66144   0.00000  Uiso   1.00
Pt1430 Pt    0.37085   0.66198   0.66144   0.00000  Uiso   1.00
Pt1431 Pt    0.62915   0.33802   0.33856   0.00000  Uiso   1.00
Pt1432 Pt    0.33856   0.33802   0.37085   0.00000  Uiso   1.00
Pt1433 Pt    0.37085   0.33802   0.33856   0.00000  Uiso   1.00
Pt1434 Pt    0.33856   0.33802   0.62915   0.00000  Uiso   1.00
Pt1435 Pt    0.33856   0.66198   0.37085   0.00000  Uiso   1.00
Pt1436 Pt    0.33856   0.66198   0.62915   0.00000  Uiso   1.00
Pt1437 Pt    0.62915   0.66198   0.33856   0.00000  Uiso   1.00
Pt1438 Pt    0.37085   0.66198   0.33856   0.00000  Uiso   1.00
Pt1439 Pt    0.50000   0.24528   0.43542   0.00000  Uiso   1.00
Pt1440 Pt    0.43542   0.24528   0.50000   0.00000  Uiso   1.00
Pt1441 Pt    0.50000   0.24528   0.56458   0.00000  Uiso   1.00
Pt1442 Pt    0.56458   0.24528   0.50000   0.00000  Uiso   1.00
Pt1443 Pt    0.50000   0.75472   0.43542   0.00000  Uiso   1.00
Pt1444 Pt    0.43542   0.75472   0.50000   0.00000  Uiso   1.00
Pt1445 Pt    0.50000   0.75472   0.56458   0.00000  Uiso   1.00
Pt1446 Pt    0.56458   0.75472   0.50000   0.00000  Uiso   1.00
Pt1447 Pt    0.62915   0.37264   0.30627   0.00000  Uiso   1.00
Pt1448 Pt    0.37085   0.37264   0.30627   0.00000  Uiso   1.00
Pt1449 Pt    0.37085   0.62736   0.30627   0.00000  Uiso   1.00
Pt1450 Pt    0.69373   0.37264   0.37085   0.00000  Uiso   1.00
Pt1451 Pt    0.30627   0.62736   0.37085   0.00000  Uiso   1.00
Pt1452 Pt    0.30627   0.37264   0.37085   0.00000  Uiso   1.00
Pt1453 Pt    0.69373   0.37264   0.62915   0.00000  Uiso   1.00
Pt1454 Pt    0.69373   0.62736   0.62915   0.00000  Uiso   1.00
Pt1455 Pt    0.37085   0.37264   0.69373   0.00000  Uiso   1.00
Pt1456 Pt    0.30627   0.37264   0.62915   0.00000  Uiso   1.00
Pt1457 Pt    0.30627   0.62736   0.62915   0.00000  Uiso   1.00
Pt1458 Pt    0.62915   0.37264   0.69373   0.00000  Uiso   1.00
Pt1459 Pt    0.62915   0.62736   0.69373   0.00000  Uiso   1.00
Pt1460 Pt    0.37085   0.62736   0.69373   0.00000  Uiso   1.00
Pt1461 Pt    0.62915   0.62736   0.30627   0.00000  Uiso   1.00
Pt1462 Pt    0.69373   0.62736   0.37085   0.00000  Uiso   1.00
Pt1463 Pt    0.56458   0.50000   0.24169   0.00000  Uiso   1.00
Pt1464 Pt    0.43542   0.50000   0.24169   0.00000  Uiso   1.00
Pt1465 Pt    0.75831   0.50000   0.43542   0.00000  Uiso   1.00
Pt1466 Pt    0.24169   0.50000   0.43542   0.00000  Uiso   1.00
Pt1467 Pt    0.75831   0.50000   0.56458   0.00000  Uiso   1.00
Pt1468 Pt    0.24169   0.50000   0.56458   0.00000  Uiso   1.00
Pt1469 Pt    0.56458   0.50000   0.75831   0.00000  Uiso   1.00
Pt1470 Pt    0.43542   0.50000   0.75831   0.00000  Uiso   1.00
Pt1471 Pt    0.66144   0.40726   0.30627   0.00000  Uiso   1.00
Pt1472 Pt    0.69373   0.40726   0.66144   0.00000  Uiso   1.00
Pt1473 Pt    0.30627   0.40726   0.66144   0.00000  Uiso   1.00
Pt1474 Pt    0.66144   0.40726   0.69373   0.00000  Uiso   1.00
Pt1475 Pt    0.66144   0.59274   0.30627   0.00000  Uiso   1.00
Pt1476 Pt    0.69373   0.59274   0.66144   0.00000  Uiso   1.00
Pt1477 Pt    0.30627   0.59274   0.66144   0.00000  Uiso   1.00
Pt1478 Pt    0.66144   0.59274   0.69373   0.00000  Uiso   1.00
Pt1479 Pt    0.69373   0.40726   0.33856   0.00000  Uiso   1.00
Pt1480 Pt    0.33856   0.40726   0.30627   0.00000  Uiso   1.00
Pt1481 Pt    0.30627   0.40726   0.33856   0.00000  Uiso   1.00
Pt1482 Pt    0.33856   0.40726   0.69373   0.00000  Uiso   1.00
Pt1483 Pt    0.33856   0.59274   0.30627   0.00000  Uiso   1.00
Pt1484 Pt    0.69373   0.59274   0.33856   0.00000  Uiso   1.00
Pt1485 Pt    0.30627   0.59274   0.33856   0.00000  Uiso   1.00
Pt1486 Pt    0.33856   0.59274   0.69373   0.00000  Uiso   1.00
Pt1487 Pt    0.59687   0.33802   0.30627   0.00000  Uiso   1.00
Pt1488 Pt    0.59687   0.33802   0.69373   0.00000  Uiso   1.00
Pt1489 Pt    0.69373   0.33802   0.59687   0.00000  Uiso   1.00
Pt1490 Pt    0.30627   0.33802   0.59687   0.00000  Uiso   1.00
Pt1491 Pt    0.40313   0.33802   0.69373   0.00000  Uiso   1.00
Pt1492 Pt    0.40313   0.33802   0.30627   0.00000  Uiso   1.00
Pt1493 Pt    0.69373   0.33802   0.40313   0.00000  Uiso   1.00
Pt1494 Pt    0.30627   0.33802   0.40313   0.00000  Uiso   1.00
Pt1495 Pt    0.59687   0.66198   0.69373   0.00000  Uiso   1.00
Pt1496 Pt    0.59687   0.66198   0.30627   0.00000  Uiso   1.00
Pt1497 Pt    0.69373   0.66198   0.59687   0.00000  Uiso   1.00
Pt1498 Pt    0.30627   0.66198   0.59687   0.00000  Uiso   1.00
Pt1499 Pt    0.40313   0.66198   0.69373   0.00000  Uiso   1.00
Pt1500 Pt    0.40313   0.66198   0.30627   0.00000  Uiso   1.00
Pt1501 Pt    0.30627   0.66198   0.40313   0.00000  Uiso   1.00
Pt1502 Pt    0.69373   0.66198   0.40313   0.00000  Uiso   1.00
Pt1503 Pt    0.56458   0.24528   0.43542   0.00000  Uiso   1.00
Pt1504 Pt    0.56458   0.24528   0.56458   0.00000  Uiso   1.00
Pt1505 Pt    0.43542   0.24528   0.56458   0.00000  Uiso   1.00
Pt1506 Pt    0.43542   0.24528   0.43542   0.00000  Uiso   1.00
Pt1507 Pt    0.56458   0.75472   0.43542   0.00000  Uiso   1.00
Pt1508 Pt    0.43542   0.75472   0.43542   0.00000  Uiso   1.00
Pt1509 Pt    0.43542   0.75472   0.56458   0.00000  Uiso   1.00
Pt1510 Pt    0.56458   0.75472   0.56458   0.00000  Uiso   1.00
Pt1511 Pt    0.50000   0.27990   0.66144   0.00000  Uiso   1.00
Pt1512 Pt    0.66144   0.27990   0.50000   0.00000  Uiso   1.00
Pt1513 Pt    0.37085   0.27990   0.59687   0.00000  Uiso   1.00
Pt1514 Pt    0.62915   0.27990   0.59687   0.00000  Uiso   1.00
Pt1515 Pt    0.59687   0.27990   0.37085   0.00000  Uiso   1.00
Pt1516 Pt    0.59687   0.27990   0.62915   0.00000  Uiso   1.00
Pt1517 Pt    0.62915   0.27990   0.40313   0.00000  Uiso   1.00
Pt1518 Pt    0.37085   0.27990   0.40313   0.00000  Uiso   1.00
Pt1519 Pt    0.40313   0.27990   0.37085   0.00000  Uiso   1.00
Pt1520 Pt    0.40313   0.27990   0.62915   0.00000  Uiso   1.00
Pt1521 Pt    0.50000   0.27990   0.33856   0.00000  Uiso   1.00
Pt1522 Pt    0.33856   0.27990   0.50000   0.00000  Uiso   1.00
Pt1523 Pt    0.66144   0.72010   0.50000   0.00000  Uiso   1.00
Pt1524 Pt    0.50000   0.72010   0.66144   0.00000  Uiso   1.00
Pt1525 Pt    0.59687   0.72010   0.37085   0.00000  Uiso   1.00
Pt1526 Pt    0.62915   0.72010   0.59687   0.00000  Uiso   1.00
Pt1527 Pt    0.59687   0.72010   0.62915   0.00000  Uiso   1.00
Pt1528 Pt    0.37085   0.72010   0.59687   0.00000  Uiso   1.00
Pt1529 Pt    0.62915   0.72010   0.40313   0.00000  Uiso   1.00
Pt1530 Pt    0.37085   0.72010   0.40313   0.00000  Uiso   1.00
Pt1531 Pt    0.40313   0.72010   0.62915   0.00000  Uiso   1.00
Pt1532 Pt    0.40313   0.72010   0.37085   0.00000  Uiso   1.00
Pt1533 Pt    0.33856   0.72010   0.50000   0.00000  Uiso   1.00
Pt1534 Pt    0.50000   0.72010   0.33856   0.00000  Uiso   1.00
Pt1535 Pt    0.69373   0.50000   0.69373   0.00000  Uiso   1.00
Pt1536 Pt    0.30627   0.50000   0.30627   0.00000  Uiso   1.00
Pt1537 Pt    0.69373   0.50000   0.30627   0.00000  Uiso   1.00
Pt1538 Pt    0.30627   0.50000   0.69373   0.00000  Uiso   1.00
Pt1539 Pt    0.53229   0.24528   0.59687   0.00000  Uiso   1.00
Pt1540 Pt    0.59687   0.24528   0.53229   0.00000  Uiso   1.00
Pt1541 Pt    0.59687   0.75472   0.53229   0.00000  Uiso   1.00
Pt1542 Pt    0.53229   0.75472   0.59687   0.00000  Uiso   1.00
Pt1543 Pt    0.59687   0.24528   0.46771   0.00000  Uiso   1.00
Pt1544 Pt    0.46771   0.24528   0.59687   0.00000  Uiso   1.00
Pt1545 Pt    0.59687   0.75472   0.46771   0.00000  Uiso   1.00
Pt1546 Pt    0.46771   0.75472   0.59687   0.00000  Uiso   1.00
Pt1547 Pt    0.40313   0.24528   0.53229   0.00000  Uiso   1.00
Pt1548 Pt    0.53229   0.24528   0.40313   0.00000  Uiso   1.00
Pt1549 Pt    0.40313   0.75472   0.53229   0.00000  Uiso   1.00
Pt1550 Pt    0.53229   0.75472   0.40313   0.00000  Uiso   1.00
Pt1551 Pt    0.40313   0.24528   0.46771   0.00000  Uiso   1.00
Pt1552 Pt    0.46771   0.24528   0.40313   0.00000  Uiso   1.00
Pt1553 Pt    0.40313   0.75472   0.46771   0.00000  Uiso   1.00
Pt1554 Pt    0.46771   0.75472   0.40313   0.00000  Uiso   1.00
Pt1555 Pt    0.72602   0.40726   0.37085   0.00000  Uiso   1.00
Pt1556 Pt    0.62915   0.40726   0.72602   0.00000  Uiso   1.00
Pt1557 Pt    0.72602   0.40726   0.62915   0.00000  Uiso   1.00
Pt1558 Pt    0.37085   0.40726   0.72602   0.00000  Uiso   1.00
Pt1559 Pt    0.72602   0.59274   0.62915   0.00000  Uiso   1.00
Pt1560 Pt    0.72602   0.59274   0.37085   0.00000  Uiso   1.00
Pt1561 Pt    0.62915   0.59274   0.72602   0.00000  Uiso   1.00
Pt1562 Pt    0.37085   0.59274   0.72602   0.00000  Uiso   1.00
Pt1563 Pt    0.53229   0.40726   0.24169   0.00000  Uiso   1.00
Pt1564 Pt    0.24169   0.40726   0.53229   0.00000  Uiso   1.00
Pt1565 Pt    0.75831   0.40726   0.53229   0.00000  Uiso   1.00
Pt1566 Pt    0.53229   0.40726   0.75831   0.00000  Uiso   1.00
Pt1567 Pt    0.46771   0.40726   0.24169   0.00000  Uiso   1.00
Pt1568 Pt    0.75831   0.40726   0.46771   0.00000  Uiso   1.00
Pt1569 Pt    0.24169   0.40726   0.46771   0.00000  Uiso   1.00
Pt1570 Pt    0.46771   0.40726   0.75831   0.00000  Uiso   1.00
Pt1571 Pt    0.53229   0.59274   0.24169   0.00000  Uiso   1.00
Pt1572 Pt    0.24169   0.59274   0.53229   0.00000  Uiso   1.00
Pt1573 Pt    0.75831   0.59274   0.53229   0.00000  Uiso   1.00
Pt1574 Pt    0.53229   0.59274   0.75831   0.00000  Uiso   1.00
Pt1575 Pt    0.46771   0.59274   0.24169   0.00000  Uiso   1.00
Pt1576 Pt    0.75831   0.59274   0.46771   0.00000  Uiso   1.00
Pt1577 Pt    0.24169   0.59274   0.46771   0.00000  Uiso   1.00
Pt1578 Pt    0.46771   0.59274   0.75831   0.00000  Uiso   1.00
Pt1579 Pt    0.62915   0.40726   0.27398   0.00000  Uiso   1.00
Pt1580 Pt    0.37085   0.40726   0.27398   0.00000  Uiso   1.00
Pt1581 Pt    0.27398   0.40726   0.62915   0.00000  Uiso   1.00
Pt1582 Pt    0.27398   0.40726   0.37085   0.00000  Uiso   1.00
Pt1583 Pt    0.62915   0.59274   0.27398   0.00000  Uiso   1.00
Pt1584 Pt    0.37085   0.59274   0.27398   0.00000  Uiso   1.00
Pt1585 Pt    0.27398   0.59274   0.37085   0.00000  Uiso   1.00
Pt1586 Pt    0.27398   0.59274   0.62915   0.00000  Uiso   1.00
Pt1587 Pt    0.59687   0.37264   0.72602   0.00000  Uiso   1.00
Pt1588 Pt    0.59687   0.62736   0.72602   0.00000  Uiso   1.00
Pt1589 Pt    0.72602   0.37264   0.59687   0.00000  Uiso   1.00
Pt1590 Pt    0.72602   0.62736   0.59687   0.00000  Uiso   1.00
Pt1591 Pt    0.72602   0.37264   0.40313   0.00000  Uiso   1.00
Pt1592 Pt    0.40313   0.37264   0.72602   0.00000  Uiso   1.00
Pt1593 Pt    0.40313   0.62736   0.72602   0.00000  Uiso   1.00
Pt1594 Pt    0.72602   0.62736   0.40313   0.00000  Uiso   1.00
Pt1595 Pt    0.59687   0.37264   0.27398   0.00000  Uiso   1.00
Pt1596 Pt    0.27398   0.37264   0.59687   0.00000  Uiso   1.00
Pt1597 Pt    0.27398   0.62736   0.59687   0.00000  Uiso   1.00
Pt1598 Pt    0.59687   0.62736   0.27398   0.00000  Uiso   1.00
Pt1599 Pt    0.27398   0.37264   0.40313   0.00000  Uiso   1.00
Pt1600 Pt    0.40313   0.37264   0.27398   0.00000  Uiso   1.00
Pt1601 Pt    0.27398   0.62736   0.40313   0.00000  Uiso   1.00
Pt1602 Pt    0.40313   0.62736   0.27398   0.00000  Uiso   1.00
Pt1603 Pt    0.72602   0.50000   0.66144   0.00000  Uiso   1.00
Pt1604 Pt    0.66144   0.50000   0.72602   0.00000  Uiso   1.00
Pt1605 Pt    0.33856   0.50000   0.72602   0.00000  Uiso   1.00
Pt1606 Pt    0.72602   0.50000   0.33856   0.00000  Uiso   1.00
Pt1607 Pt    0.66144   0.50000   0.27398   0.00000  Uiso   1.00
Pt1608 Pt    0.27398   0.50000   0.66144   0.00000  Uiso   1.00
Pt1609 Pt    0.33856   0.50000   0.27398   0.00000  Uiso   1.00
Pt1610 Pt    0.27398   0.50000   0.33856   0.00000  Uiso   1.00
Pt1611 Pt    0.59687   0.46538   0.24169   0.00000  Uiso   1.00
Pt1612 Pt    0.75831   0.46538   0.59687   0.00000  Uiso   1.00
Pt1613 Pt    0.59687   0.46538   0.75831   0.00000  Uiso   1.00
Pt1614 Pt    0.24169   0.46538   0.59687   0.00000  Uiso   1.00
Pt1615 Pt    0.59687   0.53462   0.24169   0.00000  Uiso   1.00
Pt1616 Pt    0.59687   0.53462   0.75831   0.00000  Uiso   1.00
Pt1617 Pt    0.75831   0.53462   0.59687   0.00000  Uiso   1.00
Pt1618 Pt    0.24169   0.53462   0.59687   0.00000  Uiso   1.00
Pt1619 Pt    0.75831   0.46538   0.40313   0.00000  Uiso   1.00
Pt1620 Pt    0.24169   0.46538   0.40313   0.00000  Uiso   1.00
Pt1621 Pt    0.40313   0.46538   0.24169   0.00000  Uiso   1.00
Pt1622 Pt    0.40313   0.46538   0.75831   0.00000  Uiso   1.00
Pt1623 Pt    0.40313   0.53462   0.24169   0.00000  Uiso   1.00
Pt1624 Pt    0.24169   0.53462   0.40313   0.00000  Uiso   1.00
Pt1625 Pt    0.40313   0.53462   0.75831   0.00000  Uiso   1.00
Pt1626 Pt    0.75831   0.53462   0.40313   0.00000  Uiso   1.00
Pt1627 Pt    0.72602   0.33802   0.50000   0.00000  Uiso   1.00
Pt1628 Pt    0.50000   0.33802   0.72602   0.00000  Uiso   1.00
Pt1629 Pt    0.72602   0.66198   0.50000   0.00000  Uiso   1.00
Pt1630 Pt    0.50000   0.66198   0.72602   0.00000  Uiso   1.00
Pt1631 Pt    0.27398   0.33802   0.50000   0.00000  Uiso   1.00
Pt1632 Pt    0.50000   0.33802   0.27398   0.00000  Uiso   1.00
Pt1633 Pt    0.27398   0.66198   0.50000   0.00000  Uiso   1.00
Pt1634 Pt    0.50000   0.66198   0.27398   0.00000  Uiso   1.00
Pt1635 Pt    0.56458   0.27990   0.66144   0.00000  Uiso   1.00
Pt1636 Pt    0.43542   0.27990   0.66144   0.00000  Uiso   1.00
Pt1637 Pt    0.66144   0.27990   0.56458   0.00000  Uiso   1.00
Pt1638 Pt    0.66144   0.27990   0.43542   0.00000  Uiso   1.00
Pt1639 Pt    0.56458   0.27990   0.33856   0.00000  Uiso   1.00
Pt1640 Pt    0.43542   0.27990   0.33856   0.00000  Uiso   1.00
Pt1641 Pt    0.33856   0.27990   0.56458   0.00000  Uiso   1.00
Pt1642 Pt    0.33856   0.27990   0.43542   0.00000  Uiso   1.00
Pt1643 Pt    0.66144   0.72010   0.43542   0.00000  Uiso   1.00
Pt1644 Pt    0.66144   0.72010   0.56458   0.00000  Uiso   1.00
Pt1645 Pt    0.56458   0.72010   0.66144   0.00000  Uiso   1.00
Pt1646 Pt    0.43542   0.72010   0.66144   0.00000  Uiso   1.00
Pt1647 Pt    0.33856   0.72010   0.43542   0.00000  Uiso   1.00
Pt1648 Pt    0.56458   0.72010   0.33856   0.00000  Uiso   1.00
Pt1649 Pt    0.43542   0.72010   0.33856   0.00000  Uiso   1.00
Pt1650 Pt    0.33856   0.72010   0.56458   0.00000  Uiso   1.00
Pt1651 Pt    0.72602   0.33802   0.43542   0.00000  Uiso   1.00
Pt1652 Pt    0.43542   0.33802   0.72602   0.00000  Uiso   1.00
Pt1653 Pt    0.56458   0.33802   0.72602   0.00000  Uiso   1.00
Pt1654 Pt    0.72602   0.33802   0.56458   0.00000  Uiso   1.00
Pt1655 Pt    0.72602   0.66198   0.43542   0.00000  Uiso   1.00
Pt1656 Pt    0.72602   0.66198   0.56458   0.00000  Uiso   1.00
Pt1657 Pt    0.43542   0.66198   0.72602   0.00000  Uiso   1.00
Pt1658 Pt    0.56458   0.66198   0.72602   0.00000  Uiso   1.00
Pt1659 Pt    0.56458   0.33802   0.27398   0.00000  Uiso   1.00
Pt1660 Pt    0.43542   0.33802   0.27398   0.00000  Uiso   1.00
Pt1661 Pt    0.27398   0.33802   0.43542   0.00000  Uiso   1.00
Pt1662 Pt    0.27398   0.33802   0.56458   0.00000  Uiso   1.00
Pt1663 Pt    0.27398   0.66198   0.56458   0.00000  Uiso   1.00
Pt1664 Pt    0.27398   0.66198   0.43542   0.00000  Uiso   1.00
Pt1665 Pt    0.56458   0.66198   0.27398   0.00000  Uiso   1.00
Pt1666 Pt    0.43542   0.66198   0.27398   0.00000  Uiso   1.00
Pt1667 Pt    0.50000   0.24528   0.37085   0.00000  Uiso   1.00
Pt1668 Pt    0.37085   0.24528   0.50000   0.00000  Uiso   1.00
Pt1669 Pt    0.62915   0.24528   0.50000   0.00000  Uiso   1.00
Pt1670 Pt    0.50000   0.24528   0.62915   0.00000  Uiso   1.00
Pt1671 Pt    0.37085   0.75472   0.50000   0.00000  Uiso   1.00
Pt1672 Pt    0.50000   0.75472   0.62915   0.00000  Uiso   1.00
Pt1673 Pt    0.50000   0.75472   0.37085   0.00000  Uiso   1.00
Pt1674 Pt    0.62915   0.75472   0.50000   0.00000  Uiso   1.00
Pt1675 Pt    0.50000   0.37264   0.24169   0.00000  Uiso   1.00
Pt1676 Pt    0.24169   0.37264   0.50000   0.00000  Uiso   1.00
Pt1677 Pt    0.50000   0.37264   0.75831   0.00000  Uiso   1.00
Pt1678 Pt    0.75831   0.37264   0.50000   0.00000  Uiso   1.00
Pt1679 Pt    0.50000   0.62736   0.75831   0.00000  Uiso   1.00
Pt1680 Pt    0.24169   0.62736   0.50000   0.00000  Uiso   1.00
Pt1681 Pt    0.50000   0.62736   0.24169   0.00000  Uiso   1.00
Pt1682 Pt    0.75831   0.62736   0.50000   0.00000  Uiso   1.00
Pt1683 Pt    0.62915   0.50000   0.24169   0.00000  Uiso   1.00
Pt1684 Pt    0.37085   0.50000   0.24169   0.00000  Uiso   1.00
Pt1685 Pt    0.24169   0.50000   0.37085   0.00000  Uiso   1.00
Pt1686 Pt    0.75831   0.50000   0.62915   0.00000  Uiso   1.00
Pt1687 Pt    0.75831   0.50000   0.37085   0.00000  Uiso   1.00
Pt1688 Pt    0.62915   0.50000   0.75831   0.00000  Uiso   1.00
Pt1689 Pt    0.24169   0.50000   0.62915   0.00000  Uiso   1.00
Pt1690 Pt    0.37085   0.50000   0.75831   0.00000  Uiso   1.00
Pt1691 Pt    0.59687   0.24528   0.59687   0.00000  Uiso   1.00
Pt1692 Pt    0.59687   0.75472   0.59687   0.00000  Uiso   1.00
Pt1693 Pt    0.59687   0.24528   0.40313   0.00000  Uiso   1.00
Pt1694 Pt    0.40313   0.24528   0.59687   0.00000  Uiso   1.00
Pt1695 Pt    0.59687   0.75472   0.40313   0.00000  Uiso   1.00
Pt1696 Pt    0.40313   0.75472   0.59687   0.00000  Uiso   1.00
Pt1697 Pt    0.40313   0.24528   0.40313   0.00000  Uiso   1.00
Pt1698 Pt    0.40313   0.75472   0.40313   0.00000  Uiso   1.00
Pt1699 Pt    0.59687   0.40726   0.24169   0.00000  Uiso   1.00
Pt1700 Pt    0.75831   0.40726   0.59687   0.00000  Uiso   1.00
Pt1701 Pt    0.59687   0.40726   0.75831   0.00000  Uiso   1.00
Pt1702 Pt    0.24169   0.40726   0.59687   0.00000  Uiso   1.00
Pt1703 Pt    0.59687   0.59274   0.24169   0.00000  Uiso   1.00
Pt1704 Pt    0.75831   0.59274   0.59687   0.00000  Uiso   1.00
Pt1705 Pt    0.59687   0.59274   0.75831   0.00000  Uiso   1.00
Pt1706 Pt    0.24169   0.59274   0.59687   0.00000  Uiso   1.00
Pt1707 Pt    0.75831   0.40726   0.40313   0.00000  Uiso   1.00
Pt1708 Pt    0.40313   0.40726   0.24169   0.00000  Uiso   1.00
Pt1709 Pt    0.24169   0.40726   0.40313   0.00000  Uiso   1.00
Pt1710 Pt    0.40313   0.40726   0.75831   0.00000  Uiso   1.00
Pt1711 Pt    0.24169   0.59274   0.40313   0.00000  Uiso   1.00
Pt1712 Pt    0.75831   0.59274   0.40313   0.00000  Uiso   1.00
Pt1713 Pt    0.40313   0.59274   0.24169   0.00000  Uiso   1.00
Pt1714 Pt    0.40313   0.59274   0.75831   0.00000  Uiso   1.00
Pt1715 Pt    0.50000   0.21066   0.53229   0.00000  Uiso   1.00
Pt1716 Pt    0.53229   0.21066   0.50000   0.00000  Uiso   1.00
Pt1717 Pt    0.46771   0.21066   0.50000   0.00000  Uiso   1.00
Pt1718 Pt    0.50000   0.21066   0.46771   0.00000  Uiso   1.00
Pt1719 Pt    0.53229   0.78934   0.50000   0.00000  Uiso   1.00
Pt1720 Pt    0.50000   0.78934   0.53229   0.00000  Uiso   1.00
Pt1721 Pt    0.50000   0.78934   0.46771   0.00000  Uiso   1.00
Pt1722 Pt    0.46771   0.78934   0.50000   0.00000  Uiso   1.00
Pt1723 Pt    0.79060   0.50000   0.53229   0.00000  Uiso   1.00
Pt1724 Pt    0.53229   0.50000   0.79060   0.00000  Uiso   1.00
Pt1725 Pt    0.79060   0.50000   0.46771   0.00000  Uiso   1.00
Pt1726 Pt    0.46771   0.50000   0.79060   0.00000  Uiso   1.00
Pt1727 Pt    0.53229   0.50000   0.20940   0.00000  Uiso   1.00
Pt1728 Pt    0.20940   0.50000   0.53229   0.00000  Uiso   1.00
Pt1729 Pt    0.46771   0.50000   0.20940   0.00000  Uiso   1.00
Pt1730 Pt    0.20940   0.50000   0.46771   0.00000  Uiso   1.00
Pt1731 Pt    0.79060   0.46538   0.50000   0.00000  Uiso   1.00
Pt1732 Pt    0.50000   0.46538   0.79060   0.00000  Uiso   1.00
Pt1733 Pt    0.79060   0.53462   0.50000   0.00000  Uiso   1.00
Pt1734 Pt    0.50000   0.53462   0.79060   0.00000  Uiso   1.00
Pt1735 Pt    0.50000   0.46538   0.20940   0.00000  Uiso   1.00
Pt1736 Pt    0.20940   0.46538   0.50000   0.00000  Uiso   1.00
Pt1737 Pt    0.50000   0.53462   0.20940   0.00000  Uiso   1.00
Pt1738 Pt    0.20940   0.53462   0.50000   0.00000  Uiso   1.00
Pt1739 Pt    0.56458   0.24528   0.37085   0.00000  Uiso   1.00
Pt1740 Pt    0.62915   0.24528   0.43542   0.00000  Uiso   1.00
Pt1741 Pt    0.37085   0.24528   0.56458   0.00000  Uiso   1.00
Pt1742 Pt    0.56458   0.24528   0.62915   0.00000  Uiso   1.00
Pt1743 Pt    0.43542   0.24528   0.62915   0.00000  Uiso   1.00
Pt1744 Pt    0.37085   0.24528   0.43542   0.00000  Uiso   1.00
Pt1745 Pt    0.43542   0.24528   0.37085   0.00000  Uiso   1.00
Pt1746 Pt    0.62915   0.24528   0.56458   0.00000  Uiso   1.00
Pt1747 Pt    0.56458   0.75472   0.37085   0.00000  Uiso   1.00
Pt1748 Pt    0.62915   0.75472   0.43542   0.00000  Uiso   1.00
Pt1749 Pt    0.43542   0.75472   0.62915   0.00000  Uiso   1.00
Pt1750 Pt    0.43542   0.75472   0.37085   0.00000  Uiso   1.00
Pt1751 Pt    0.37085   0.75472   0.43542   0.00000  Uiso   1.00
Pt1752 Pt    0.56458   0.75472   0.62915   0.00000  Uiso   1.00
Pt1753 Pt    0.37085   0.75472   0.56458   0.00000  Uiso   1.00
Pt1754 Pt    0.62915   0.75472   0.56458   0.00000  Uiso   1.00
Pt1755 Pt    0.30627   0.27990   0.53229   0.00000  Uiso   1.00
Pt1756 Pt    0.53229   0.27990   0.30627   0.00000  Uiso   1.00
Pt1757 Pt    0.69373   0.27990   0.53229   0.00000  Uiso   1.00
Pt1758 Pt    0.53229   0.27990   0.69373   0.00000  Uiso   1.00
Pt1759 Pt    0.69373   0.27990   0.46771   0.00000  Uiso   1.00
Pt1760 Pt    0.30627   0.27990   0.46771   0.00000  Uiso   1.00
Pt1761 Pt    0.46771   0.27990   0.30627   0.00000  Uiso   1.00
Pt1762 Pt    0.46771   0.27990   0.69373   0.00000  Uiso   1.00
Pt1763 Pt    0.53229   0.72010   0.30627   0.00000  Uiso   1.00
Pt1764 Pt    0.30627   0.72010   0.53229   0.00000  Uiso   1.00
Pt1765 Pt    0.53229   0.72010   0.69373   0.00000  Uiso   1.00
Pt1766 Pt    0.69373   0.72010   0.53229   0.00000  Uiso   1.00
Pt1767 Pt    0.46771   0.72010   0.30627   0.00000  Uiso   1.00
Pt1768 Pt    0.46771   0.72010   0.69373   0.00000  Uiso   1.00
Pt1769 Pt    0.69373   0.72010   0.46771   0.00000  Uiso   1.00
Pt1770 Pt    0.30627   0.72010   0.46771   0.00000  Uiso   1.00
Pt1771 Pt    0.56458   0.37264   0.24169   0.00000  Uiso   1.00
Pt1772 Pt    0.43542   0.37264   0.24169   0.00000  Uiso   1.00
Pt1773 Pt    0.75831   0.37264   0.56458   0.00000  Uiso   1.00
Pt1774 Pt    0.75831   0.37264   0.43542   0.00000  Uiso   1.00
Pt1775 Pt    0.56458   0.37264   0.75831   0.00000  Uiso   1.00
Pt1776 Pt    0.24169   0.37264   0.56458   0.00000  Uiso   1.00
Pt1777 Pt    0.75831   0.62736   0.56458   0.00000  Uiso   1.00
Pt1778 Pt    0.43542   0.62736   0.24169   0.00000  Uiso   1.00
Pt1779 Pt    0.56458   0.62736   0.75831   0.00000  Uiso   1.00
Pt1780 Pt    0.56458   0.62736   0.24169   0.00000  Uiso   1.00
Pt1781 Pt    0.43542   0.62736   0.75831   0.00000  Uiso   1.00
Pt1782 Pt    0.43542   0.37264   0.75831   0.00000  Uiso   1.00
Pt1783 Pt    0.24169   0.62736   0.43542   0.00000  Uiso   1.00
Pt1784 Pt    0.24169   0.37264   0.43542   0.00000  Uiso   1.00
Pt1785 Pt    0.24169   0.62736   0.56458   0.00000  Uiso   1.00
Pt1786 Pt    0.75831   0.62736   0.43542   0.00000  Uiso   1.00
Pt1787 Pt    0.53229   0.21066   0.43542   0.00000  Uiso   1.00
Pt1788 Pt    0.43542   0.21066   0.53229   0.00000  Uiso   1.00
Pt1789 Pt    0.56458   0.21066   0.53229   0.00000  Uiso   1.00
Pt1790 Pt    0.53229   0.21066   0.56458   0.00000  Uiso   1.00
Pt1791 Pt    0.56458   0.21066   0.46771   0.00000  Uiso   1.00
Pt1792 Pt    0.46771   0.21066   0.43542   0.00000  Uiso   1.00
Pt1793 Pt    0.43542   0.21066   0.46771   0.00000  Uiso   1.00
Pt1794 Pt    0.46771   0.21066   0.56458   0.00000  Uiso   1.00
Pt1795 Pt    0.56458   0.78934   0.53229   0.00000  Uiso   1.00
Pt1796 Pt    0.53229   0.78934   0.56458   0.00000  Uiso   1.00
Pt1797 Pt    0.53229   0.78934   0.43542   0.00000  Uiso   1.00
Pt1798 Pt    0.43542   0.78934   0.53229   0.00000  Uiso   1.00
Pt1799 Pt    0.46771   0.78934   0.56458   0.00000  Uiso   1.00
Pt1800 Pt    0.43542   0.78934   0.46771   0.00000  Uiso   1.00
Pt1801 Pt    0.56458   0.78934   0.46771   0.00000  Uiso   1.00
Pt1802 Pt    0.46771   0.78934   0.43542   0.00000  Uiso   1.00
Pt1803 Pt    0.79060   0.46538   0.43542   0.00000  Uiso   1.00
Pt1804 Pt    0.79060   0.46538   0.56458   0.00000  Uiso   1.00
Pt1805 Pt    0.43542   0.46538   0.79060   0.00000  Uiso   1.00
Pt1806 Pt    0.56458   0.46538   0.79060   0.00000  Uiso   1.00
Pt1807 Pt    0.72602   0.46538   0.30627   0.00000  Uiso   1.00
Pt1808 Pt    0.72602   0.46538   0.69373   0.00000  Uiso   1.00
Pt1809 Pt    0.30627   0.46538   0.72602   0.00000  Uiso   1.00
Pt1810 Pt    0.69373   0.46538   0.72602   0.00000  Uiso   1.00
Pt1811 Pt    0.79060   0.53462   0.43542   0.00000  Uiso   1.00
Pt1812 Pt    0.79060   0.53462   0.56458   0.00000  Uiso   1.00
Pt1813 Pt    0.56458   0.53462   0.79060   0.00000  Uiso   1.00
Pt1814 Pt    0.43542   0.53462   0.79060   0.00000  Uiso   1.00
Pt1815 Pt    0.72602   0.53462   0.30627   0.00000  Uiso   1.00
Pt1816 Pt    0.72602   0.53462   0.69373   0.00000  Uiso   1.00
Pt1817 Pt    0.69373   0.53462   0.72602   0.00000  Uiso   1.00
Pt1818 Pt    0.30627   0.53462   0.72602   0.00000  Uiso   1.00
Pt1819 Pt    0.27398   0.46538   0.69373   0.00000  Uiso   1.00
Pt1820 Pt    0.30627   0.46538   0.27398   0.00000  Uiso   1.00
Pt1821 Pt    0.27398   0.46538   0.30627   0.00000  Uiso   1.00
Pt1822 Pt    0.69373   0.46538   0.27398   0.00000  Uiso   1.00
Pt1823 Pt    0.56458   0.46538   0.20940   0.00000  Uiso   1.00
Pt1824 Pt    0.43542   0.46538   0.20940   0.00000  Uiso   1.00
Pt1825 Pt    0.20940   0.46538   0.43542   0.00000  Uiso   1.00
Pt1826 Pt    0.20940   0.46538   0.56458   0.00000  Uiso   1.00
Pt1827 Pt    0.27398   0.53462   0.30627   0.00000  Uiso   1.00
Pt1828 Pt    0.30627   0.53462   0.27398   0.00000  Uiso   1.00
Pt1829 Pt    0.27398   0.53462   0.69373   0.00000  Uiso   1.00
Pt1830 Pt    0.69373   0.53462   0.27398   0.00000  Uiso   1.00
Pt1831 Pt    0.56458   0.53462   0.20940   0.00000  Uiso   1.00
Pt1832 Pt    0.20940   0.53462   0.43542   0.00000  Uiso   1.00
Pt1833 Pt    0.43542   0.53462   0.20940   0.00000  Uiso   1.00
Pt1834 Pt    0.20940   0.53462   0.56458   0.00000  Uiso   1.00
Pt1835 Pt    0.66144   0.33802   0.30627   0.00000  Uiso   1.00
Pt1836 Pt    0.69373   0.33802   0.66144   0.00000  Uiso   1.00
Pt1837 Pt    0.66144   0.33802   0.69373   0.00000  Uiso   1.00
Pt1838 Pt    0.30627   0.33802   0.66144   0.00000  Uiso   1.00
Pt1839 Pt    0.66144   0.66198   0.69373   0.00000  Uiso   1.00
Pt1840 Pt    0.30627   0.66198   0.66144   0.00000  Uiso   1.00
Pt1841 Pt    0.66144   0.66198   0.30627   0.00000  Uiso   1.00
Pt1842 Pt    0.69373   0.66198   0.66144   0.00000  Uiso   1.00
Pt1843 Pt    0.33856   0.33802   0.30627   0.00000  Uiso   1.00
Pt1844 Pt    0.69373   0.33802   0.33856   0.00000  Uiso   1.00
Pt1845 Pt    0.30627   0.33802   0.33856   0.00000  Uiso   1.00
Pt1846 Pt    0.33856   0.33802   0.69373   0.00000  Uiso   1.00
Pt1847 Pt    0.33856   0.66198   0.69373   0.00000  Uiso   1.00
Pt1848 Pt    0.33856   0.66198   0.30627   0.00000  Uiso   1.00
Pt1849 Pt    0.30627   0.66198   0.33856   0.00000  Uiso   1.00
Pt1850 Pt    0.69373   0.66198   0.33856   0.00000  Uiso   1.00
Pt1851 Pt    0.66144   0.27990   0.37085   0.00000  Uiso   1.00
Pt1852 Pt    0.62915   0.27990   0.66144   0.00000  Uiso   1.00
Pt1853 Pt    0.37085   0.27990   0.66144   0.00000  Uiso   1.00
Pt1854 Pt    0.66144   0.27990   0.62915   0.00000  Uiso   1.00
Pt1855 Pt    0.62915   0.27990   0.33856   0.00000  Uiso   1.00
Pt1856 Pt    0.37085   0.27990   0.33856   0.00000  Uiso   1.00
Pt1857 Pt    0.33856   0.27990   0.37085   0.00000  Uiso   1.00
Pt1858 Pt    0.33856   0.27990   0.62915   0.00000  Uiso   1.00
Pt1859 Pt    0.62915   0.72010   0.66144   0.00000  Uiso   1.00
Pt1860 Pt    0.66144   0.72010   0.37085   0.00000  Uiso   1.00
Pt1861 Pt    0.66144   0.72010   0.62915   0.00000  Uiso   1.00
Pt1862 Pt    0.37085   0.72010   0.66144   0.00000  Uiso   1.00
Pt1863 Pt    0.62915   0.72010   0.33856   0.00000  Uiso   1.00
Pt1864 Pt    0.33856   0.72010   0.62915   0.00000  Uiso   1.00
Pt1865 Pt    0.37085   0.72010   0.33856   0.00000  Uiso   1.00
Pt1866 Pt    0.33856   0.72010   0.37085   0.00000  Uiso   1.00
Pt1867 Pt    0.30627   0.62736   0.69373   0.00000  Uiso   1.00
Pt1868 Pt    0.69373   0.37264   0.30627   0.00000  Uiso   1.00
Pt1869 Pt    0.30627   0.62736   0.30627   0.00000  Uiso   1.00
Pt1870 Pt    0.30627   0.37264   0.30627   0.00000  Uiso   1.00
Pt1871 Pt    0.69373   0.37264   0.69373   0.00000  Uiso   1.00
Pt1872 Pt    0.69373   0.62736   0.69373   0.00000  Uiso   1.00
Pt1873 Pt    0.30627   0.37264   0.69373   0.00000  Uiso   1.00
Pt1874 Pt    0.69373   0.62736   0.30627   0.00000  Uiso   1.00
Pt1875 Pt    0.66144   0.24528   0.53229   0.00000  Uiso   1.00
Pt1876 Pt    0.53229   0.24528   0.66144   0.00000  Uiso   1.00
Pt1877 Pt    0.66144   0.75472   0.53229   0.00000  Uiso   1.00
Pt1878 Pt    0.53229   0.75472   0.66144   0.00000  Uiso   1.00
Pt1879 Pt    0.66144   0.24528   0.46771   0.00000  Uiso   1.00
Pt1880 Pt    0.46771   0.24528   0.66144   0.00000  Uiso   1.00
Pt1881 Pt    0.46771   0.75472   0.66144   0.00000  Uiso   1.00
Pt1882 Pt    0.66144   0.75472   0.46771   0.00000  Uiso   1.00
Pt1883 Pt    0.53229   0.24528   0.33856   0.00000  Uiso   1.00
Pt1884 Pt    0.33856   0.24528   0.53229   0.00000  Uiso   1.00
Pt1885 Pt    0.53229   0.75472   0.33856   0.00000  Uiso   1.00
Pt1886 Pt    0.33856   0.75472   0.53229   0.00000  Uiso   1.00
Pt1887 Pt    0.46771   0.24528   0.33856   0.00000  Uiso   1.00
Pt1888 Pt    0.33856   0.24528   0.46771   0.00000  Uiso   1.00
Pt1889 Pt    0.33856   0.75472   0.46771   0.00000  Uiso   1.00
Pt1890 Pt    0.46771   0.75472   0.33856   0.00000  Uiso   1.00
Pt1891 Pt    0.79060   0.40726   0.50000   0.00000  Uiso   1.00
Pt1892 Pt    0.50000   0.40726   0.79060   0.00000  Uiso   1.00
Pt1893 Pt    0.79060   0.59274   0.50000   0.00000  Uiso   1.00
Pt1894 Pt    0.50000   0.59274   0.79060   0.00000  Uiso   1.00
Pt1895 Pt    0.50000   0.40726   0.20940   0.00000  Uiso   1.00
Pt1896 Pt    0.20940   0.40726   0.50000   0.00000  Uiso   1.00
Pt1897 Pt    0.50000   0.59274   0.20940   0.00000  Uiso   1.00
Pt1898 Pt    0.20940   0.59274   0.50000   0.00000  Uiso   1.00
Pt1899 Pt    0.50000   0.21066   0.59687   0.00000  Uiso   1.00
Pt1900 Pt    0.59687   0.21066   0.50000   0.00000  Uiso   1.00
Pt1901 Pt    0.40313   0.21066   0.50000   0.00000  Uiso   1.00
Pt1902 Pt    0.50000   0.21066   0.40313   0.00000  Uiso   1.00
Pt1903 Pt    0.59687   0.78934   0.50000   0.00000  Uiso   1.00
Pt1904 Pt    0.50000   0.78934   0.59687   0.00000  Uiso   1.00
Pt1905 Pt    0.40313   0.78934   0.50000   0.00000  Uiso   1.00
Pt1906 Pt    0.50000   0.78934   0.40313   0.00000  Uiso   1.00
Pt1907 Pt    0.72602   0.37264   0.66144   0.00000  Uiso   1.00
Pt1908 Pt    0.72602   0.62736   0.66144   0.00000  Uiso   1.00
Pt1909 Pt    0.66144   0.37264   0.72602   0.00000  Uiso   1.00
Pt1910 Pt    0.66144   0.62736   0.72602   0.00000  Uiso   1.00
Pt1911 Pt    0.33856   0.62736   0.72602   0.00000  Uiso   1.00
Pt1912 Pt    0.72602   0.37264   0.33856   0.00000  Uiso   1.00
Pt1913 Pt    0.33856   0.37264   0.72602   0.00000  Uiso   1.00
Pt1914 Pt    0.72602   0.62736   0.33856   0.00000  Uiso   1.00
Pt1915 Pt    0.66144   0.37264   0.27398   0.00000  Uiso   1.00
Pt1916 Pt    0.27398   0.62736   0.66144   0.00000  Uiso   1.00
Pt1917 Pt    0.27398   0.37264   0.66144   0.00000  Uiso   1.00
Pt1918 Pt    0.66144   0.62736   0.27398   0.00000  Uiso   1.00
Pt1919 Pt    0.33856   0.62736   0.27398   0.00000  Uiso   1.00
Pt1920 Pt    0.33856   0.37264   0.27398   0.00000  Uiso   1.00
Pt1921 Pt    0.27398   0.37264   0.33856   0.00000  Uiso   1.00
Pt1922 Pt    0.27398   0.62736   0.33856   0.00000  Uiso   1.00
Pt1923 Pt    0.79060   0.50000   0.59687   0.00000  Uiso   1.00
Pt1924 Pt    0.59687   0.50000   0.79060   0.00000  Uiso   1.00
Pt1925 Pt    0.79060   0.50000   0.40313   0.00000  Uiso   1.00
Pt1926 Pt    0.40313   0.50000   0.79060   0.00000  Uiso   1.00
Pt1927 Pt    0.59687   0.50000   0.20940   0.00000  Uiso   1.00
Pt1928 Pt    0.20940   0.50000   0.59687   0.00000  Uiso   1.00
Pt1929 Pt    0.40313   0.50000   0.20940   0.00000  Uiso   1.00
Pt1930 Pt    0.20940   0.50000   0.40313   0.00000  Uiso   1.00
Pt1931 Pt    0.66144   0.46538   0.24169   0.00000  Uiso   1.00
Pt1932 Pt    0.75831   0.46538   0.66144   0.00000  Uiso   1.00
Pt1933 Pt    0.24169   0.46538   0.66144   0.00000  Uiso   1.00
Pt1934 Pt    0.66144   0.46538   0.75831   0.00000  Uiso   1.00
Pt1935 Pt    0.66144   0.53462   0.24169   0.00000  Uiso   1.00
Pt1936 Pt    0.24169   0.53462   0.66144   0.00000  Uiso   1.00
Pt1937 Pt    0.66144   0.53462   0.75831   0.00000  Uiso   1.00
Pt1938 Pt    0.75831   0.53462   0.66144   0.00000  Uiso   1.00
Pt1939 Pt    0.33856   0.46538   0.24169   0.00000  Uiso   1.00
Pt1940 Pt    0.75831   0.46538   0.33856   0.00000  Uiso   1.00
Pt1941 Pt    0.33856   0.46538   0.75831   0.00000  Uiso   1.00
Pt1942 Pt    0.24169   0.46538   0.33856   0.00000  Uiso   1.00
Pt1943 Pt    0.33856   0.53462   0.75831   0.00000  Uiso   1.00
Pt1944 Pt    0.33856   0.53462   0.24169   0.00000  Uiso   1.00
Pt1945 Pt    0.24169   0.53462   0.33856   0.00000  Uiso   1.00
Pt1946 Pt    0.75831   0.53462   0.33856   0.00000  Uiso   1.00
Pt1947 Pt    0.72602   0.33802   0.37085   0.00000  Uiso   1.00
Pt1948 Pt    0.62915   0.33802   0.72602   0.00000  Uiso   1.00
Pt1949 Pt    0.37085   0.33802   0.72602   0.00000  Uiso   1.00
Pt1950 Pt    0.72602   0.33802   0.62915   0.00000  Uiso   1.00
Pt1951 Pt    0.53229   0.33802   0.24169   0.00000  Uiso   1.00
Pt1952 Pt    0.53229   0.33802   0.75831   0.00000  Uiso   1.00
Pt1953 Pt    0.24169   0.33802   0.53229   0.00000  Uiso   1.00
Pt1954 Pt    0.75831   0.33802   0.53229   0.00000  Uiso   1.00
Pt1955 Pt    0.46771   0.33802   0.24169   0.00000  Uiso   1.00
Pt1956 Pt    0.75831   0.33802   0.46771   0.00000  Uiso   1.00
Pt1957 Pt    0.46771   0.33802   0.75831   0.00000  Uiso   1.00
Pt1958 Pt    0.24169   0.33802   0.46771   0.00000  Uiso   1.00
Pt1959 Pt    0.72602   0.66198   0.37085   0.00000  Uiso   1.00
Pt1960 Pt    0.72602   0.66198   0.62915   0.00000  Uiso   1.00
Pt1961 Pt    0.37085   0.66198   0.72602   0.00000  Uiso   1.00
Pt1962 Pt    0.62915   0.66198   0.72602   0.00000  Uiso   1.00
Pt1963 Pt    0.62915   0.33802   0.27398   0.00000  Uiso   1.00
Pt1964 Pt    0.27398   0.33802   0.37085   0.00000  Uiso   1.00
Pt1965 Pt    0.37085   0.33802   0.27398   0.00000  Uiso   1.00
Pt1966 Pt    0.27398   0.33802   0.62915   0.00000  Uiso   1.00
Pt1967 Pt    0.53229   0.66198   0.24169   0.00000  Uiso   1.00
Pt1968 Pt    0.53229   0.66198   0.75831   0.00000  Uiso   1.00
Pt1969 Pt    0.24169   0.66198   0.53229   0.00000  Uiso   1.00
Pt1970 Pt    0.75831   0.66198   0.53229   0.00000  Uiso   1.00
Pt1971 Pt    0.46771   0.66198   0.75831   0.00000  Uiso   1.00
Pt1972 Pt    0.46771   0.66198   0.24169   0.00000  Uiso   1.00
Pt1973 Pt    0.75831   0.66198   0.46771   0.00000  Uiso   1.00
Pt1974 Pt    0.24169   0.66198   0.46771   0.00000  Uiso   1.00
Pt1975 Pt    0.27398   0.66198   0.62915   0.00000  Uiso   1.00
Pt1976 Pt    0.27398   0.66198   0.37085   0.00000  Uiso   1.00
Pt1977 Pt    0.62915   0.66198   0.27398   0.00000  Uiso   1.00
Pt1978 Pt    0.37085   0.66198   0.27398   0.00000  Uiso   1.00
Pt1979 Pt    0.59687   0.27990   0.30627   0.00000  Uiso   1.00
Pt1980 Pt    0.69373   0.27990   0.59687   0.00000  Uiso   1.00
Pt1981 Pt    0.30627   0.27990   0.59687   0.00000  Uiso   1.00
Pt1982 Pt    0.59687   0.27990   0.69373   0.00000  Uiso   1.00
Pt1983 Pt    0.69373   0.27990   0.40313   0.00000  Uiso   1.00
Pt1984 Pt    0.30627   0.27990   0.40313   0.00000  Uiso   1.00
Pt1985 Pt    0.40313   0.27990   0.30627   0.00000  Uiso   1.00
Pt1986 Pt    0.40313   0.27990   0.69373   0.00000  Uiso   1.00
Pt1987 Pt    0.59687   0.72010   0.30627   0.00000  Uiso   1.00
Pt1988 Pt    0.59687   0.72010   0.69373   0.00000  Uiso   1.00
Pt1989 Pt    0.30627   0.72010   0.59687   0.00000  Uiso   1.00
Pt1990 Pt    0.69373   0.72010   0.59687   0.00000  Uiso   1.00
Pt1991 Pt    0.69373   0.72010   0.40313   0.00000  Uiso   1.00
Pt1992 Pt    0.40313   0.72010   0.69373   0.00000  Uiso   1.00
Pt1993 Pt    0.30627   0.72010   0.40313   0.00000  Uiso   1.00
Pt1994 Pt    0.40313   0.72010   0.30627   0.00000  Uiso   1.00
Pt1995 Pt    0.79060   0.40726   0.43542   0.00000  Uiso   1.00
Pt1996 Pt    0.43542   0.40726   0.79060   0.00000  Uiso   1.00
Pt1997 Pt    0.79060   0.40726   0.56458   0.00000  Uiso   1.00
Pt1998 Pt    0.56458   0.40726   0.79060   0.00000  Uiso   1.00
Pt1999 Pt    0.72602   0.40726   0.30627   0.00000  Uiso   1.00
Pt2000 Pt    0.30627   0.40726   0.72602   0.00000  Uiso   1.00
Pt2001 Pt    0.72602   0.40726   0.69373   0.00000  Uiso   1.00
Pt2002 Pt    0.69373   0.40726   0.72602   0.00000  Uiso   1.00
Pt2003 Pt    0.79060   0.59274   0.43542   0.00000  Uiso   1.00
Pt2004 Pt    0.79060   0.59274   0.56458   0.00000  Uiso   1.00
Pt2005 Pt    0.43542   0.59274   0.79060   0.00000  Uiso   1.00
Pt2006 Pt    0.56458   0.59274   0.79060   0.00000  Uiso   1.00
Pt2007 Pt    0.72602   0.59274   0.69373   0.00000  Uiso   1.00
Pt2008 Pt    0.72602   0.59274   0.30627   0.00000  Uiso   1.00
Pt2009 Pt    0.69373   0.59274   0.72602   0.00000  Uiso   1.00
Pt2010 Pt    0.30627   0.59274   0.72602   0.00000  Uiso   1.00
Pt2011 Pt    0.69373   0.40726   0.27398   0.00000  Uiso   1.00
Pt2012 Pt    0.30627   0.40726   0.27398   0.00000  Uiso   1.00
Pt2013 Pt    0.27398   0.40726   0.30627   0.00000  Uiso   1.00
Pt2014 Pt    0.27398   0.40726   0.69373   0.00000  Uiso   1.00
Pt2015 Pt    0.56458   0.40726   0.20940   0.00000  Uiso   1.00
Pt2016 Pt    0.43542   0.40726   0.20940   0.00000  Uiso   1.00
Pt2017 Pt    0.20940   0.40726   0.56458   0.00000  Uiso   1.00
Pt2018 Pt    0.20940   0.40726   0.43542   0.00000  Uiso   1.00
Pt2019 Pt    0.30627   0.59274   0.27398   0.00000  Uiso   1.00
Pt2020 Pt    0.27398   0.59274   0.69373   0.00000  Uiso   1.00
Pt2021 Pt    0.69373   0.59274   0.27398   0.00000  Uiso   1.00
Pt2022 Pt    0.27398   0.59274   0.30627   0.00000  Uiso   1.00
Pt2023 Pt    0.56458   0.59274   0.20940   0.00000  Uiso   1.00
Pt2024 Pt    0.43542   0.59274   0.20940   0.00000  Uiso   1.00
Pt2025 Pt    0.20940   0.59274   0.56458   0.00000  Uiso   1.00
Pt2026 Pt    0.20940   0.59274   0.43542   0.00000  Uiso   1.00
Pt2027 Pt    0.56458   0.21066   0.59687   0.00000  Uiso   1.00
Pt2028 Pt    0.59687   0.21066   0.43542   0.00000  Uiso   1.00
Pt2029 Pt    0.43542   0.21066   0.59687   0.00000  Uiso   1.00
Pt2030 Pt    0.59687   0.21066   0.56458   0.00000  Uiso   1.00
Pt2031 Pt    0.56458   0.21066   0.40313   0.00000  Uiso   1.00
Pt2032 Pt    0.43542   0.21066   0.40313   0.00000  Uiso   1.00
Pt2033 Pt    0.40313   0.21066   0.56458   0.00000  Uiso   1.00
Pt2034 Pt    0.40313   0.21066   0.43542   0.00000  Uiso   1.00
Pt2035 Pt    0.56458   0.78934   0.59687   0.00000  Uiso   1.00
Pt2036 Pt    0.43542   0.78934   0.59687   0.00000  Uiso   1.00
Pt2037 Pt    0.59687   0.78934   0.56458   0.00000  Uiso   1.00
Pt2038 Pt    0.59687   0.78934   0.43542   0.00000  Uiso   1.00
Pt2039 Pt    0.56458   0.78934   0.40313   0.00000  Uiso   1.00
Pt2040 Pt    0.40313   0.78934   0.56458   0.00000  Uiso   1.00
Pt2041 Pt    0.40313   0.78934   0.43542   0.00000  Uiso   1.00
Pt2042 Pt    0.43542   0.78934   0.40313   0.00000  Uiso   1.00
Pt2043 Pt    0.62915   0.24528   0.37085   0.00000  Uiso   1.00
Pt2044 Pt    0.62915   0.24528   0.62915   0.00000  Uiso   1.00
Pt2045 Pt    0.37085   0.24528   0.62915   0.00000  Uiso   1.00
Pt2046 Pt    0.37085   0.24528   0.37085   0.00000  Uiso   1.00
Pt2047 Pt    0.62915   0.75472   0.37085   0.00000  Uiso   1.00
Pt2048 Pt    0.37085   0.75472   0.37085   0.00000  Uiso   1.00
Pt2049 Pt    0.62915   0.75472   0.62915   0.00000  Uiso   1.00
Pt2050 Pt    0.37085   0.75472   0.62915   0.00000  Uiso   1.00
Pt2051 Pt    0.72602   0.27990   0.50000   0.00000  Uiso   1.00
Pt2052 Pt    0.50000   0.27990   0.72602   0.00000  Uiso   1.00
Pt2053 Pt    0.72602   0.72010   0.50000   0.00000  Uiso   1.00
Pt2054 Pt    0.50000   0.72010   0.72602   0.00000  Uiso   1.00
Pt2055 Pt    0.50000   0.27990   0.27398   0.00000  Uiso   1.00
Pt2056 Pt    0.27398   0.27990   0.50000   0.00000  Uiso   1.00
Pt2057 Pt    0.50000   0.72010   0.27398   0.00000  Uiso   1.00
Pt2058 Pt    0.27398   0.72010   0.50000   0.00000  Uiso   1.00
Pt2059 Pt    0.62915   0.37264   0.24169   0.00000  Uiso   1.00
Pt2060 Pt    0.37085   0.37264   0.24169   0.00000  Uiso   1.00
Pt2061 Pt    0.37085   0.62736   0.75831   0.00000  Uiso   1.00
Pt2062 Pt    0.24169   0.62736   0.62915   0.00000  Uiso   1.00
Pt2063 Pt    0.62915   0.37264   0.75831   0.00000  Uiso   1.00
Pt2064 Pt    0.62915   0.62736   0.24169   0.00000  Uiso   1.00
Pt2065 Pt    0.75831   0.62736   0.62915   0.00000  Uiso   1.00
Pt2066 Pt    0.37085   0.62736   0.24169   0.00000  Uiso   1.00
Pt2067 Pt    0.37085   0.37264   0.75831   0.00000  Uiso   1.00
Pt2068 Pt    0.24169   0.62736   0.37085   0.00000  Uiso   1.00
Pt2069 Pt    0.24169   0.37264   0.37085   0.00000  Uiso   1.00
Pt2070 Pt    0.24169   0.37264   0.62915   0.00000  Uiso   1.00
Pt2071 Pt    0.75831   0.37264   0.62915   0.00000  Uiso   1.00
Pt2072 Pt    0.62915   0.62736   0.75831   0.00000  Uiso   1.00
Pt2073 Pt    0.75831   0.37264   0.37085   0.00000  Uiso   1.00
Pt2074 Pt    0.75831   0.62736   0.37085   0.00000  Uiso   1.00
Pt2075 Pt    0.59687   0.24528   0.66144   0.00000  Uiso   1.00
Pt2076 Pt    0.66144   0.24528   0.59687   0.00000  Uiso   1.00
Pt2077 Pt    0.66144   0.75472   0.59687   0.00000  Uiso   1.00
Pt2078 Pt    0.59687   0.75472   0.66144   0.00000  Uiso   1.00
Pt2079 Pt    0.66144   0.24528   0.40313   0.00000  Uiso   1.00
Pt2080 Pt    0.40313   0.24528   0.66144   0.00000  Uiso   1.00
Pt2081 Pt    0.66144   0.75472   0.40313   0.00000  Uiso   1.00
Pt2082 Pt    0.40313   0.75472   0.66144   0.00000  Uiso   1.00
Pt2083 Pt    0.59687   0.24528   0.33856   0.00000  Uiso   1.00
Pt2084 Pt    0.33856   0.24528   0.59687   0.00000  Uiso   1.00
Pt2085 Pt    0.33856   0.75472   0.59687   0.00000  Uiso   1.00
Pt2086 Pt    0.59687   0.75472   0.33856   0.00000  Uiso   1.00
Pt2087 Pt    0.33856   0.24528   0.40313   0.00000  Uiso   1.00
Pt2088 Pt    0.40313   0.24528   0.33856   0.00000  Uiso   1.00
Pt2089 Pt    0.33856   0.75472   0.40313   0.00000  Uiso   1.00
Pt2090 Pt    0.40313   0.75472   0.33856   0.00000  Uiso   1.00
Pt2091 Pt    0.66144   0.40726   0.24169   0.00000  Uiso   1.00
Pt2092 Pt    0.75831   0.40726   0.66144   0.00000  Uiso   1.00
Pt2093 Pt    0.24169   0.40726   0.66144   0.00000  Uiso   1.00
Pt2094 Pt    0.66144   0.40726   0.75831   0.00000  Uiso   1.00
Pt2095 Pt    0.66144   0.59274   0.24169   0.00000  Uiso   1.00
Pt2096 Pt    0.75831   0.59274   0.66144   0.00000  Uiso   1.00
Pt2097 Pt    0.66144   0.59274   0.75831   0.00000  Uiso   1.00
Pt2098 Pt    0.24169   0.59274   0.66144   0.00000  Uiso   1.00
Pt2099 Pt    0.75831   0.40726   0.33856   0.00000  Uiso   1.00
Pt2100 Pt    0.24169   0.40726   0.33856   0.00000  Uiso   1.00
Pt2101 Pt    0.33856   0.40726   0.24169   0.00000  Uiso   1.00
Pt2102 Pt    0.33856   0.40726   0.75831   0.00000  Uiso   1.00
Pt2103 Pt    0.33856   0.59274   0.24169   0.00000  Uiso   1.00
Pt2104 Pt    0.75831   0.59274   0.33856   0.00000  Uiso   1.00
Pt2105 Pt    0.33856   0.59274   0.75831   0.00000  Uiso   1.00
Pt2106 Pt    0.24169   0.59274   0.33856   0.00000  Uiso   1.00
Pt2107 Pt    0.53229   0.21066   0.37085   0.00000  Uiso   1.00
Pt2108 Pt    0.37085   0.21066   0.53229   0.00000  Uiso   1.00
Pt2109 Pt    0.53229   0.21066   0.62915   0.00000  Uiso   1.00
Pt2110 Pt    0.62915   0.21066   0.53229   0.00000  Uiso   1.00
Pt2111 Pt    0.46771   0.21066   0.37085   0.00000  Uiso   1.00
Pt2112 Pt    0.37085   0.21066   0.46771   0.00000  Uiso   1.00
Pt2113 Pt    0.46771   0.21066   0.62915   0.00000  Uiso   1.00
Pt2114 Pt    0.62915   0.21066   0.46771   0.00000  Uiso   1.00
Pt2115 Pt    0.62915   0.78934   0.53229   0.00000  Uiso   1.00
Pt2116 Pt    0.53229   0.78934   0.62915   0.00000  Uiso   1.00
Pt2117 Pt    0.37085   0.78934   0.53229   0.00000  Uiso   1.00
Pt2118 Pt    0.53229   0.78934   0.37085   0.00000  Uiso   1.00
Pt2119 Pt    0.46771   0.78934   0.37085   0.00000  Uiso   1.00
Pt2120 Pt    0.37085   0.78934   0.46771   0.00000  Uiso   1.00
Pt2121 Pt    0.62915   0.78934   0.46771   0.00000  Uiso   1.00
Pt2122 Pt    0.46771   0.78934   0.62915   0.00000  Uiso   1.00
Pt2123 Pt    0.79060   0.37264   0.53229   0.00000  Uiso   1.00
Pt2124 Pt    0.53229   0.37264   0.79060   0.00000  Uiso   1.00
Pt2125 Pt    0.53229   0.62736   0.79060   0.00000  Uiso   1.00
Pt2126 Pt    0.79060   0.62736   0.53229   0.00000  Uiso   1.00
Pt2127 Pt    0.79060   0.37264   0.46771   0.00000  Uiso   1.00
Pt2128 Pt    0.46771   0.37264   0.79060   0.00000  Uiso   1.00
Pt2129 Pt    0.46771   0.62736   0.79060   0.00000  Uiso   1.00
Pt2130 Pt    0.79060   0.62736   0.46771   0.00000  Uiso   1.00
Pt2131 Pt    0.53229   0.37264   0.20940   0.00000  Uiso   1.00
Pt2132 Pt    0.20940   0.62736   0.53229   0.00000  Uiso   1.00
Pt2133 Pt    0.20940   0.37264   0.53229   0.00000  Uiso   1.00
Pt2134 Pt    0.53229   0.62736   0.20940   0.00000  Uiso   1.00
Pt2135 Pt    0.46771   0.37264   0.20940   0.00000  Uiso   1.00
Pt2136 Pt    0.20940   0.37264   0.46771   0.00000  Uiso   1.00
Pt2137 Pt    0.20940   0.62736   0.46771   0.00000  Uiso   1.00
Pt2138 Pt    0.46771   0.62736   0.20940   0.00000  Uiso   1.00
Pt2139 Pt    0.72602   0.50000   0.72602   0.00000  Uiso   1.00
Pt2140 Pt    0.72602   0.50000   0.27398   0.00000  Uiso   1.00
Pt2141 Pt    0.27398   0.50000   0.72602   0.00000  Uiso   1.00
Pt2142 Pt    0.27398   0.50000   0.27398   0.00000  Uiso   1.00
Pt2143 Pt    0.79060   0.46538   0.37085   0.00000  Uiso   1.00
Pt2144 Pt    0.79060   0.46538   0.62915   0.00000  Uiso   1.00
Pt2145 Pt    0.62915   0.46538   0.79060   0.00000  Uiso   1.00
Pt2146 Pt    0.37085   0.46538   0.79060   0.00000  Uiso   1.00
Pt2147 Pt    0.79060   0.53462   0.62915   0.00000  Uiso   1.00
Pt2148 Pt    0.79060   0.53462   0.37085   0.00000  Uiso   1.00
Pt2149 Pt    0.62915   0.53462   0.79060   0.00000  Uiso   1.00
Pt2150 Pt    0.37085   0.53462   0.79060   0.00000  Uiso   1.00
Pt2151 Pt    0.62915   0.46538   0.20940   0.00000  Uiso   1.00
Pt2152 Pt    0.20940   0.46538   0.62915   0.00000  Uiso   1.00
Pt2153 Pt    0.20940   0.46538   0.37085   0.00000  Uiso   1.00
Pt2154 Pt    0.37085   0.46538   0.20940   0.00000  Uiso   1.00
Pt2155 Pt    0.62915   0.53462   0.20940   0.00000  Uiso   1.00
Pt2156 Pt    0.20940   0.53462   0.62915   0.00000  Uiso   1.00
Pt2157 Pt    0.20940   0.53462   0.37085   0.00000  Uiso   1.00
Pt2158 Pt    0.37085   0.53462   0.20940   0.00000  Uiso   1.00
Pt2159 Pt    0.59687   0.33802   0.24169   0.00000  Uiso   1.00
Pt2160 Pt    0.75831   0.33802   0.59687   0.00000  Uiso   1.00
Pt2161 Pt    0.24169   0.33802   0.59687   0.00000  Uiso   1.00
Pt2162 Pt    0.59687   0.33802   0.75831   0.00000  Uiso   1.00
Pt2163 Pt    0.75831   0.33802   0.40313   0.00000  Uiso   1.00
Pt2164 Pt    0.40313   0.33802   0.75831   0.00000  Uiso   1.00
Pt2165 Pt    0.24169   0.33802   0.40313   0.00000  Uiso   1.00
Pt2166 Pt    0.40313   0.33802   0.24169   0.00000  Uiso   1.00
Pt2167 Pt    0.59687   0.66198   0.75831   0.00000  Uiso   1.00
Pt2168 Pt    0.24169   0.66198   0.59687   0.00000  Uiso   1.00
Pt2169 Pt    0.59687   0.66198   0.24169   0.00000  Uiso   1.00
Pt2170 Pt    0.75831   0.66198   0.59687   0.00000  Uiso   1.00
Pt2171 Pt    0.40313   0.66198   0.24169   0.00000  Uiso   1.00
Pt2172 Pt    0.40313   0.66198   0.75831   0.00000  Uiso   1.00
Pt2173 Pt    0.24169   0.66198   0.40313   0.00000  Uiso   1.00
Pt2174 Pt    0.75831   0.66198   0.40313   0.00000  Uiso   1.00
Pt2175 Pt    0.69373   0.24528   0.50000   0.00000  Uiso   1.00
Pt2176 Pt    0.50000   0.24528   0.30627   0.00000  Uiso   1.00
Pt2177 Pt    0.30627   0.24528   0.50000   0.00000  Uiso   1.00
Pt2178 Pt    0.50000   0.24528   0.69373   0.00000  Uiso   1.00
Pt2179 Pt    0.50000   0.75472   0.69373   0.00000  Uiso   1.00
Pt2180 Pt    0.30627   0.75472   0.50000   0.00000  Uiso   1.00
Pt2181 Pt    0.50000   0.75472   0.30627   0.00000  Uiso   1.00
Pt2182 Pt    0.69373   0.75472   0.50000   0.00000  Uiso   1.00
Pt2183 Pt    0.43542   0.27990   0.72602   0.00000  Uiso   1.00
Pt2184 Pt    0.56458   0.27990   0.72602   0.00000  Uiso   1.00
Pt2185 Pt    0.72602   0.27990   0.43542   0.00000  Uiso   1.00
Pt2186 Pt    0.72602   0.27990   0.56458   0.00000  Uiso   1.00
Pt2187 Pt    0.43542   0.72010   0.72602   0.00000  Uiso   1.00
Pt2188 Pt    0.72602   0.72010   0.56458   0.00000  Uiso   1.00
Pt2189 Pt    0.56458   0.72010   0.72602   0.00000  Uiso   1.00
Pt2190 Pt    0.72602   0.72010   0.43542   0.00000  Uiso   1.00
Pt2191 Pt    0.56458   0.27990   0.27398   0.00000  Uiso   1.00
Pt2192 Pt    0.43542   0.27990   0.27398   0.00000  Uiso   1.00
Pt2193 Pt    0.27398   0.27990   0.56458   0.00000  Uiso   1.00
Pt2194 Pt    0.27398   0.27990   0.43542   0.00000  Uiso   1.00
Pt2195 Pt    0.56458   0.72010   0.27398   0.00000  Uiso   1.00
Pt2196 Pt    0.27398   0.72010   0.56458   0.00000  Uiso   1.00
Pt2197 Pt    0.27398   0.72010   0.43542   0.00000  Uiso   1.00
Pt2198 Pt    0.43542   0.72010   0.27398   0.00000  Uiso   1.00
Pt2199 Pt    0.50000   0.50000   0.17711   0.00000  Uiso   1.00
Pt2200 Pt    0.69373   0.50000   0.24169   0.00000  Uiso   1.00
Pt2201 Pt    0.75831   0.50000   0.69373   0.00000  Uiso   1.00
Pt2202 Pt    0.82289   0.50000   0.50000   0.00000  Uiso   1.00
Pt2203 Pt    0.30627   0.50000   0.24169   0.00000  Uiso   1.00
Pt2204 Pt    0.24169   0.50000   0.30627   0.00000  Uiso   1.00
Pt2205 Pt    0.75831   0.50000   0.30627   0.00000  Uiso   1.00
Pt2206 Pt    0.17711   0.50000   0.50000   0.00000  Uiso   1.00
Pt2207 Pt    0.30627   0.50000   0.75831   0.00000  Uiso   1.00
Pt2208 Pt    0.50000   0.50000   0.82289   0.00000  Uiso   1.00
Pt2209 Pt    0.24169   0.50000   0.69373   0.00000  Uiso   1.00
Pt2210 Pt    0.69373   0.50000   0.75831   0.00000  Uiso   1.00
Pt2211 Pt    0.53229   0.46538   0.17711   0.00000  Uiso   1.00
Pt2212 Pt    0.82289   0.46538   0.53229   0.00000  Uiso   1.00
Pt2213 Pt    0.17711   0.46538   0.53229   0.00000  Uiso   1.00
Pt2214 Pt    0.53229   0.46538   0.82289   0.00000  Uiso   1.00
Pt2215 Pt    0.46771   0.46538   0.17711   0.00000  Uiso   1.00
Pt2216 Pt    0.82289   0.46538   0.46771   0.00000  Uiso   1.00
Pt2217 Pt    0.17711   0.46538   0.46771   0.00000  Uiso   1.00
Pt2218 Pt    0.46771   0.46538   0.82289   0.00000  Uiso   1.00
Pt2219 Pt    0.53229   0.53462   0.17711   0.00000  Uiso   1.00
Pt2220 Pt    0.82289   0.53462   0.53229   0.00000  Uiso   1.00
Pt2221 Pt    0.17711   0.53462   0.53229   0.00000  Uiso   1.00
Pt2222 Pt    0.53229   0.53462   0.82289   0.00000  Uiso   1.00
Pt2223 Pt    0.46771   0.53462   0.17711   0.00000  Uiso   1.00
Pt2224 Pt    0.82289   0.53462   0.46771   0.00000  Uiso   1.00
Pt2225 Pt    0.46771   0.53462   0.82289   0.00000  Uiso   1.00
Pt2226 Pt    0.17711   0.53462   0.46771   0.00000  Uiso   1.00
Pt2227 Pt    0.56458   0.24528   0.30627   0.00000  Uiso   1.00
Pt2228 Pt    0.69373   0.24528   0.43542   0.00000  Uiso   1.00
Pt2229 Pt    0.43542   0.24528   0.30627   0.00000  Uiso   1.00
Pt2230 Pt    0.30627   0.24528   0.43542   0.00000  Uiso   1.00
Pt2231 Pt    0.56458   0.75472   0.30627   0.00000  Uiso   1.00
Pt2232 Pt    0.30627   0.24528   0.56458   0.00000  Uiso   1.00
Pt2233 Pt    0.69373   0.24528   0.56458   0.00000  Uiso   1.00
Pt2234 Pt    0.43542   0.24528   0.69373   0.00000  Uiso   1.00
Pt2235 Pt    0.56458   0.24528   0.69373   0.00000  Uiso   1.00
Pt2236 Pt    0.43542   0.75472   0.69373   0.00000  Uiso   1.00
Pt2237 Pt    0.43542   0.75472   0.30627   0.00000  Uiso   1.00
Pt2238 Pt    0.56458   0.75472   0.69373   0.00000  Uiso   1.00
Pt2239 Pt    0.30627   0.75472   0.43542   0.00000  Uiso   1.00
Pt2240 Pt    0.69373   0.75472   0.43542   0.00000  Uiso   1.00
Pt2241 Pt    0.69373   0.75472   0.56458   0.00000  Uiso   1.00
Pt2242 Pt    0.30627   0.75472   0.56458   0.00000  Uiso   1.00
Pt2243 Pt    0.56458   0.50000   0.17711   0.00000  Uiso   1.00
Pt2244 Pt    0.43542   0.50000   0.17711   0.00000  Uiso   1.00
Pt2245 Pt    0.82289   0.50000   0.43542   0.00000  Uiso   1.00
Pt2246 Pt    0.82289   0.50000   0.56458   0.00000  Uiso   1.00
Pt2247 Pt    0.17711   0.50000   0.43542   0.00000  Uiso   1.00
Pt2248 Pt    0.17711   0.50000   0.56458   0.00000  Uiso   1.00
Pt2249 Pt    0.56458   0.50000   0.82289   0.00000  Uiso   1.00
Pt2250 Pt    0.43542   0.50000   0.82289   0.00000  Uiso   1.00
Pt2251 Pt    0.79060   0.40726   0.37085   0.00000  Uiso   1.00
Pt2252 Pt    0.79060   0.40726   0.62915   0.00000  Uiso   1.00
Pt2253 Pt    0.62915   0.40726   0.79060   0.00000  Uiso   1.00
Pt2254 Pt    0.37085   0.40726   0.79060   0.00000  Uiso   1.00
Pt2255 Pt    0.79060   0.59274   0.37085   0.00000  Uiso   1.00
Pt2256 Pt    0.37085   0.59274   0.79060   0.00000  Uiso   1.00
Pt2257 Pt    0.62915   0.59274   0.79060   0.00000  Uiso   1.00
Pt2258 Pt    0.79060   0.59274   0.62915   0.00000  Uiso   1.00
Pt2259 Pt    0.62915   0.40726   0.20940   0.00000  Uiso   1.00
Pt2260 Pt    0.37085   0.40726   0.20940   0.00000  Uiso   1.00
Pt2261 Pt    0.20940   0.40726   0.62915   0.00000  Uiso   1.00
Pt2262 Pt    0.20940   0.40726   0.37085   0.00000  Uiso   1.00
Pt2263 Pt    0.62915   0.59274   0.20940   0.00000  Uiso   1.00
Pt2264 Pt    0.37085   0.59274   0.20940   0.00000  Uiso   1.00
Pt2265 Pt    0.20940   0.59274   0.62915   0.00000  Uiso   1.00
Pt2266 Pt    0.20940   0.59274   0.37085   0.00000  Uiso   1.00
Pt2267 Pt    0.66144   0.21066   0.50000   0.00000  Uiso   1.00
Pt2268 Pt    0.50000   0.21066   0.66144   0.00000  Uiso   1.00
Pt2269 Pt    0.59687   0.21066   0.37085   0.00000  Uiso   1.00
Pt2270 Pt    0.62915   0.21066   0.59687   0.00000  Uiso   1.00
Pt2271 Pt    0.37085   0.21066   0.59687   0.00000  Uiso   1.00
Pt2272 Pt    0.59687   0.21066   0.62915   0.00000  Uiso   1.00
Pt2273 Pt    0.62915   0.21066   0.40313   0.00000  Uiso   1.00
Pt2274 Pt    0.37085   0.21066   0.40313   0.00000  Uiso   1.00
Pt2275 Pt    0.40313   0.21066   0.62915   0.00000  Uiso   1.00
Pt2276 Pt    0.40313   0.21066   0.37085   0.00000  Uiso   1.00
Pt2277 Pt    0.33856   0.21066   0.50000   0.00000  Uiso   1.00
Pt2278 Pt    0.50000   0.21066   0.33856   0.00000  Uiso   1.00
Pt2279 Pt    0.50000   0.78934   0.66144   0.00000  Uiso   1.00
Pt2280 Pt    0.66144   0.78934   0.50000   0.00000  Uiso   1.00
Pt2281 Pt    0.37085   0.78934   0.59687   0.00000  Uiso   1.00
Pt2282 Pt    0.59687   0.78934   0.62915   0.00000  Uiso   1.00
Pt2283 Pt    0.62915   0.78934   0.59687   0.00000  Uiso   1.00
Pt2284 Pt    0.59687   0.78934   0.37085   0.00000  Uiso   1.00
Pt2285 Pt    0.40313   0.78934   0.62915   0.00000  Uiso   1.00
Pt2286 Pt    0.37085   0.78934   0.40313   0.00000  Uiso   1.00
Pt2287 Pt    0.40313   0.78934   0.37085   0.00000  Uiso   1.00
Pt2288 Pt    0.62915   0.78934   0.40313   0.00000  Uiso   1.00
Pt2289 Pt    0.50000   0.78934   0.33856   0.00000  Uiso   1.00
Pt2290 Pt    0.33856   0.78934   0.50000   0.00000  Uiso   1.00
Pt2291 Pt    0.59687   0.37264   0.79060   0.00000  Uiso   1.00
Pt2292 Pt    0.79060   0.37264   0.59687   0.00000  Uiso   1.00
Pt2293 Pt    0.59687   0.62736   0.79060   0.00000  Uiso   1.00
Pt2294 Pt    0.79060   0.62736   0.59687   0.00000  Uiso   1.00
Pt2295 Pt    0.40313   0.62736   0.79060   0.00000  Uiso   1.00
Pt2296 Pt    0.79060   0.37264   0.40313   0.00000  Uiso   1.00
Pt2297 Pt    0.40313   0.37264   0.79060   0.00000  Uiso   1.00
Pt2298 Pt    0.79060   0.62736   0.40313   0.00000  Uiso   1.00
Pt2299 Pt    0.20940   0.62736   0.59687   0.00000  Uiso   1.00
Pt2300 Pt    0.20940   0.37264   0.59687   0.00000  Uiso   1.00
Pt2301 Pt    0.59687   0.37264   0.20940   0.00000  Uiso   1.00
Pt2302 Pt    0.59687   0.62736   0.20940   0.00000  Uiso   1.00
Pt2303 Pt    0.40313   0.37264   0.20940   0.00000  Uiso   1.00
Pt2304 Pt    0.20940   0.37264   0.40313   0.00000  Uiso   1.00
Pt2305 Pt    0.20940   0.62736   0.40313   0.00000  Uiso   1.00
Pt2306 Pt    0.40313   0.62736   0.20940   0.00000  Uiso   1.00
Pt2307 Pt    0.66144   0.50000   0.79060   0.00000  Uiso   1.00
Pt2308 Pt    0.79060   0.50000   0.66144   0.00000  Uiso   1.00
Pt2309 Pt    0.79060   0.50000   0.33856   0.00000  Uiso   1.00
Pt2310 Pt    0.33856   0.50000   0.79060   0.00000  Uiso   1.00
Pt2311 Pt    0.66144   0.50000   0.20940   0.00000  Uiso   1.00
Pt2312 Pt    0.20940   0.50000   0.66144   0.00000  Uiso   1.00
Pt2313 Pt    0.33856   0.50000   0.20940   0.00000  Uiso   1.00
Pt2314 Pt    0.20940   0.50000   0.33856   0.00000  Uiso   1.00
Pt2315 Pt    0.79060   0.33802   0.50000   0.00000  Uiso   1.00
Pt2316 Pt    0.50000   0.33802   0.79060   0.00000  Uiso   1.00
Pt2317 Pt    0.79060   0.66198   0.50000   0.00000  Uiso   1.00
Pt2318 Pt    0.50000   0.66198   0.79060   0.00000  Uiso   1.00
Pt2319 Pt    0.50000   0.33802   0.20940   0.00000  Uiso   1.00
Pt2320 Pt    0.20940   0.33802   0.50000   0.00000  Uiso   1.00
Pt2321 Pt    0.20940   0.66198   0.50000   0.00000  Uiso   1.00
Pt2322 Pt    0.50000   0.66198   0.20940   0.00000  Uiso   1.00
