data_3D\Atomistic
_audit_creation_date              2024-08-05
_audit_creation_method            'Materials Studio'
_symmetry_space_group_name_H-M    'P1'
_symmetry_Int_Tables_number       1
_symmetry_cell_setting            triclinic
loop_
_symmetry_equiv_pos_as_xyz
  x,y,z
_cell_length_a                    60.0000
_cell_length_b                    60.0000
_cell_length_c                    60.0000
_cell_angle_alpha                 90.0000
_cell_angle_beta                  90.0000
_cell_angle_gamma                 90.0000
loop_
_atom_site_label
_atom_site_type_symbol
_atom_site_fract_x
_atom_site_fract_y
_atom_site_fract_z
_atom_site_U_iso_or_equiv
_atom_site_adp_type
_atom_site_occupancy
Pt1    Pt    0.43671   0.43671   0.18355   0.00000  Uiso   1.00
Pt2    Pt    0.46835   0.40506   0.18355   0.00000  Uiso   1.00
Pt3    Pt    0.50000   0.43671   0.18355   0.00000  Uiso   1.00
Pt4    Pt    0.53165   0.40506   0.18355   0.00000  Uiso   1.00
Pt5    Pt    0.56329   0.43671   0.18355   0.00000  Uiso   1.00
Pt6    Pt    0.40506   0.46835   0.18355   0.00000  Uiso   1.00
Pt7    Pt    0.43671   0.50000   0.18355   0.00000  Uiso   1.00
Pt8    Pt    0.46835   0.46835   0.18355   0.00000  Uiso   1.00
Pt9    Pt    0.50000   0.50000   0.18355   0.00000  Uiso   1.00
Pt10   Pt    0.53165   0.46835   0.18355   0.00000  Uiso   1.00
Pt11   Pt    0.56329   0.50000   0.18355   0.00000  Uiso   1.00
Pt12   Pt    0.59494   0.46835   0.18355   0.00000  Uiso   1.00
Pt13   Pt    0.40506   0.53165   0.18355   0.00000  Uiso   1.00
Pt14   Pt    0.43671   0.56329   0.18355   0.00000  Uiso   1.00
Pt15   Pt    0.46835   0.53165   0.18355   0.00000  Uiso   1.00
Pt16   Pt    0.50000   0.56329   0.18355   0.00000  Uiso   1.00
Pt17   Pt    0.53165   0.53165   0.18355   0.00000  Uiso   1.00
Pt18   Pt    0.56329   0.56329   0.18355   0.00000  Uiso   1.00
Pt19   Pt    0.59494   0.53165   0.18355   0.00000  Uiso   1.00
Pt20   Pt    0.46835   0.59494   0.18355   0.00000  Uiso   1.00
Pt21   Pt    0.53165   0.59494   0.18355   0.00000  Uiso   1.00
Pt22   Pt    0.37342   0.24684   0.37342   0.00000  Uiso   1.00
Pt23   Pt    0.40506   0.21519   0.37342   0.00000  Uiso   1.00
Pt24   Pt    0.40506   0.24684   0.34177   0.00000  Uiso   1.00
Pt25   Pt    0.43671   0.21519   0.34177   0.00000  Uiso   1.00
Pt26   Pt    0.43671   0.24684   0.37342   0.00000  Uiso   1.00
Pt27   Pt    0.46835   0.21519   0.37342   0.00000  Uiso   1.00
Pt28   Pt    0.46835   0.24684   0.34177   0.00000  Uiso   1.00
Co29   Co    0.43671   0.24684   0.31013   0.00000  Uiso   1.00
Pt30   Pt    0.50000   0.21519   0.34177   0.00000  Uiso   1.00
Pt31   Pt    0.50000   0.24684   0.37342   0.00000  Uiso   1.00
Pt32   Pt    0.53165   0.21519   0.37342   0.00000  Uiso   1.00
Pt33   Pt    0.53165   0.24684   0.34177   0.00000  Uiso   1.00
Co34   Co    0.50000   0.24684   0.31013   0.00000  Uiso   1.00
Pt35   Pt    0.56329   0.21519   0.34177   0.00000  Uiso   1.00
Pt36   Pt    0.56329   0.24684   0.37342   0.00000  Uiso   1.00
Pt37   Pt    0.59494   0.21519   0.37342   0.00000  Uiso   1.00
Pt38   Pt    0.59494   0.24684   0.34177   0.00000  Uiso   1.00
Co39   Co    0.56329   0.24684   0.31013   0.00000  Uiso   1.00
Pt40   Pt    0.62658   0.24684   0.37342   0.00000  Uiso   1.00
Pt41   Pt    0.27848   0.31013   0.34177   0.00000  Uiso   1.00
Pt42   Pt    0.31013   0.27848   0.34177   0.00000  Uiso   1.00
Pt43   Pt    0.31013   0.31013   0.37342   0.00000  Uiso   1.00
Pt44   Pt    0.34177   0.27848   0.37342   0.00000  Uiso   1.00
Pt45   Pt    0.34177   0.31013   0.27848   0.00000  Uiso   1.00
Pt46   Pt    0.34177   0.31013   0.34177   0.00000  Uiso   1.00
Co47   Co    0.31013   0.31013   0.31013   0.00000  Uiso   1.00
Co48   Co    0.34177   0.27848   0.31013   0.00000  Uiso   1.00
Pt49   Pt    0.37342   0.27848   0.34177   0.00000  Uiso   1.00
Pt50   Pt    0.37342   0.31013   0.37342   0.00000  Uiso   1.00
Pt51   Pt    0.40506   0.27848   0.37342   0.00000  Uiso   1.00
Pt52   Pt    0.40506   0.31013   0.27848   0.00000  Uiso   1.00
Pt53   Pt    0.40506   0.31013   0.34177   0.00000  Uiso   1.00
Co54   Co    0.37342   0.31013   0.31013   0.00000  Uiso   1.00
Co55   Co    0.40506   0.27848   0.31013   0.00000  Uiso   1.00
Pt56   Pt    0.43671   0.27848   0.27848   0.00000  Uiso   1.00
Pt57   Pt    0.43671   0.27848   0.34177   0.00000  Uiso   1.00
Pt58   Pt    0.43671   0.31013   0.24684   0.00000  Uiso   1.00
Pt59   Pt    0.43671   0.31013   0.37342   0.00000  Uiso   1.00
Pt60   Pt    0.46835   0.27848   0.37342   0.00000  Uiso   1.00
Pt61   Pt    0.46835   0.31013   0.27848   0.00000  Uiso   1.00
Pt62   Pt    0.46835   0.31013   0.34177   0.00000  Uiso   1.00
Co63   Co    0.43671   0.31013   0.31013   0.00000  Uiso   1.00
Co64   Co    0.46835   0.27848   0.31013   0.00000  Uiso   1.00
Pt65   Pt    0.50000   0.27848   0.27848   0.00000  Uiso   1.00
Pt66   Pt    0.50000   0.27848   0.34177   0.00000  Uiso   1.00
Pt67   Pt    0.50000   0.31013   0.24684   0.00000  Uiso   1.00
Pt68   Pt    0.50000   0.31013   0.37342   0.00000  Uiso   1.00
Pt69   Pt    0.53165   0.27848   0.37342   0.00000  Uiso   1.00
Pt70   Pt    0.53165   0.31013   0.27848   0.00000  Uiso   1.00
Pt71   Pt    0.53165   0.31013   0.34177   0.00000  Uiso   1.00
Co72   Co    0.50000   0.31013   0.31013   0.00000  Uiso   1.00
Co73   Co    0.53165   0.27848   0.31013   0.00000  Uiso   1.00
Pt74   Pt    0.56329   0.27848   0.27848   0.00000  Uiso   1.00
Pt75   Pt    0.56329   0.27848   0.34177   0.00000  Uiso   1.00
Pt76   Pt    0.56329   0.31013   0.24684   0.00000  Uiso   1.00
Pt77   Pt    0.56329   0.31013   0.37342   0.00000  Uiso   1.00
Pt78   Pt    0.59494   0.27848   0.37342   0.00000  Uiso   1.00
Pt79   Pt    0.59494   0.31013   0.27848   0.00000  Uiso   1.00
Pt80   Pt    0.59494   0.31013   0.34177   0.00000  Uiso   1.00
Co81   Co    0.56329   0.31013   0.31013   0.00000  Uiso   1.00
Co82   Co    0.59494   0.27848   0.31013   0.00000  Uiso   1.00
Pt83   Pt    0.62658   0.27848   0.34177   0.00000  Uiso   1.00
Pt84   Pt    0.62658   0.31013   0.37342   0.00000  Uiso   1.00
Pt85   Pt    0.65823   0.27848   0.37342   0.00000  Uiso   1.00
Pt86   Pt    0.65823   0.31013   0.27848   0.00000  Uiso   1.00
Pt87   Pt    0.65823   0.31013   0.34177   0.00000  Uiso   1.00
Co88   Co    0.62658   0.31013   0.31013   0.00000  Uiso   1.00
Co89   Co    0.65823   0.27848   0.31013   0.00000  Uiso   1.00
Pt90   Pt    0.68987   0.27848   0.34177   0.00000  Uiso   1.00
Pt91   Pt    0.68987   0.31013   0.37342   0.00000  Uiso   1.00
Pt92   Pt    0.72152   0.31013   0.34177   0.00000  Uiso   1.00
Co93   Co    0.68987   0.31013   0.31013   0.00000  Uiso   1.00
Pt94   Pt    0.24684   0.37342   0.37342   0.00000  Uiso   1.00
Pt95   Pt    0.27848   0.34177   0.37342   0.00000  Uiso   1.00
Pt96   Pt    0.27848   0.37342   0.34177   0.00000  Uiso   1.00
Co97   Co    0.27848   0.34177   0.31013   0.00000  Uiso   1.00
Pt98   Pt    0.31013   0.34177   0.27848   0.00000  Uiso   1.00
Pt99   Pt    0.31013   0.34177   0.34177   0.00000  Uiso   1.00
Pt100  Pt    0.31013   0.37342   0.37342   0.00000  Uiso   1.00
Pt101  Pt    0.34177   0.34177   0.37342   0.00000  Uiso   1.00
Pt102  Pt    0.34177   0.37342   0.27848   0.00000  Uiso   1.00
Pt103  Pt    0.34177   0.37342   0.34177   0.00000  Uiso   1.00
Co104  Co    0.31013   0.37342   0.31013   0.00000  Uiso   1.00
Co105  Co    0.34177   0.34177   0.31013   0.00000  Uiso   1.00
Pt106  Pt    0.37342   0.34177   0.27848   0.00000  Uiso   1.00
Pt107  Pt    0.37342   0.34177   0.34177   0.00000  Uiso   1.00
Pt108  Pt    0.37342   0.37342   0.24684   0.00000  Uiso   1.00
Pt109  Pt    0.37342   0.37342   0.37342   0.00000  Uiso   1.00
Pt110  Pt    0.40506   0.34177   0.24684   0.00000  Uiso   1.00
Pt111  Pt    0.40506   0.34177   0.37342   0.00000  Uiso   1.00
Pt112  Pt    0.40506   0.37342   0.27848   0.00000  Uiso   1.00
Pt113  Pt    0.40506   0.37342   0.34177   0.00000  Uiso   1.00
Co114  Co    0.37342   0.37342   0.31013   0.00000  Uiso   1.00
Co115  Co    0.40506   0.34177   0.31013   0.00000  Uiso   1.00
Co116  Co    0.40506   0.37342   0.21519   0.00000  Uiso   1.00
Pt117  Pt    0.43671   0.34177   0.27848   0.00000  Uiso   1.00
Pt118  Pt    0.43671   0.34177   0.34177   0.00000  Uiso   1.00
Pt119  Pt    0.43671   0.37342   0.24684   0.00000  Uiso   1.00
Pt120  Pt    0.43671   0.37342   0.37342   0.00000  Uiso   1.00
Pt121  Pt    0.46835   0.34177   0.24684   0.00000  Uiso   1.00
Pt122  Pt    0.46835   0.34177   0.37342   0.00000  Uiso   1.00
Pt123  Pt    0.46835   0.37342   0.27848   0.00000  Uiso   1.00
Pt124  Pt    0.46835   0.37342   0.34177   0.00000  Uiso   1.00
Co125  Co    0.43671   0.34177   0.21519   0.00000  Uiso   1.00
Co126  Co    0.43671   0.37342   0.31013   0.00000  Uiso   1.00
Co127  Co    0.46835   0.34177   0.31013   0.00000  Uiso   1.00
Co128  Co    0.46835   0.37342   0.21519   0.00000  Uiso   1.00
Pt129  Pt    0.50000   0.34177   0.27848   0.00000  Uiso   1.00
Pt130  Pt    0.50000   0.34177   0.34177   0.00000  Uiso   1.00
Pt131  Pt    0.50000   0.37342   0.24684   0.00000  Uiso   1.00
Pt132  Pt    0.50000   0.37342   0.37342   0.00000  Uiso   1.00
Pt133  Pt    0.53165   0.34177   0.24684   0.00000  Uiso   1.00
Pt134  Pt    0.53165   0.34177   0.37342   0.00000  Uiso   1.00
Pt135  Pt    0.53165   0.37342   0.27848   0.00000  Uiso   1.00
Pt136  Pt    0.53165   0.37342   0.34177   0.00000  Uiso   1.00
Co137  Co    0.50000   0.34177   0.21519   0.00000  Uiso   1.00
Co138  Co    0.50000   0.37342   0.31013   0.00000  Uiso   1.00
Co139  Co    0.53165   0.34177   0.31013   0.00000  Uiso   1.00
Co140  Co    0.53165   0.37342   0.21519   0.00000  Uiso   1.00
Pt141  Pt    0.56329   0.34177   0.27848   0.00000  Uiso   1.00
Pt142  Pt    0.56329   0.34177   0.34177   0.00000  Uiso   1.00
Pt143  Pt    0.56329   0.37342   0.24684   0.00000  Uiso   1.00
Pt144  Pt    0.56329   0.37342   0.37342   0.00000  Uiso   1.00
Pt145  Pt    0.59494   0.34177   0.24684   0.00000  Uiso   1.00
Pt146  Pt    0.59494   0.34177   0.37342   0.00000  Uiso   1.00
Pt147  Pt    0.59494   0.37342   0.27848   0.00000  Uiso   1.00
Pt148  Pt    0.59494   0.37342   0.34177   0.00000  Uiso   1.00
Co149  Co    0.56329   0.34177   0.21519   0.00000  Uiso   1.00
Co150  Co    0.56329   0.37342   0.31013   0.00000  Uiso   1.00
Co151  Co    0.59494   0.34177   0.31013   0.00000  Uiso   1.00
Co152  Co    0.59494   0.37342   0.21519   0.00000  Uiso   1.00
Pt153  Pt    0.62658   0.34177   0.27848   0.00000  Uiso   1.00
Pt154  Pt    0.62658   0.34177   0.34177   0.00000  Uiso   1.00
Pt155  Pt    0.62658   0.37342   0.24684   0.00000  Uiso   1.00
Pt156  Pt    0.62658   0.37342   0.37342   0.00000  Uiso   1.00
Pt157  Pt    0.65823   0.34177   0.37342   0.00000  Uiso   1.00
Pt158  Pt    0.65823   0.37342   0.27848   0.00000  Uiso   1.00
Pt159  Pt    0.65823   0.37342   0.34177   0.00000  Uiso   1.00
Co160  Co    0.62658   0.37342   0.31013   0.00000  Uiso   1.00
Co161  Co    0.65823   0.34177   0.31013   0.00000  Uiso   1.00
Pt162  Pt    0.68987   0.34177   0.27848   0.00000  Uiso   1.00
Pt163  Pt    0.68987   0.34177   0.34177   0.00000  Uiso   1.00
Pt164  Pt    0.68987   0.37342   0.37342   0.00000  Uiso   1.00
Pt165  Pt    0.72152   0.34177   0.37342   0.00000  Uiso   1.00
Pt166  Pt    0.72152   0.37342   0.34177   0.00000  Uiso   1.00
Co167  Co    0.68987   0.37342   0.31013   0.00000  Uiso   1.00
Co168  Co    0.72152   0.34177   0.31013   0.00000  Uiso   1.00
Pt169  Pt    0.75316   0.37342   0.37342   0.00000  Uiso   1.00
Pt170  Pt    0.21519   0.40506   0.37342   0.00000  Uiso   1.00
Pt171  Pt    0.21519   0.43671   0.34177   0.00000  Uiso   1.00
Pt172  Pt    0.24684   0.40506   0.34177   0.00000  Uiso   1.00
Pt173  Pt    0.24684   0.43671   0.37342   0.00000  Uiso   1.00
Pt174  Pt    0.27848   0.40506   0.37342   0.00000  Uiso   1.00
Pt175  Pt    0.27848   0.43671   0.27848   0.00000  Uiso   1.00
Pt176  Pt    0.27848   0.43671   0.34177   0.00000  Uiso   1.00
Co177  Co    0.24684   0.43671   0.31013   0.00000  Uiso   1.00
Co178  Co    0.27848   0.40506   0.31013   0.00000  Uiso   1.00
Pt179  Pt    0.31013   0.40506   0.27848   0.00000  Uiso   1.00
Pt180  Pt    0.31013   0.40506   0.34177   0.00000  Uiso   1.00
Pt181  Pt    0.31013   0.43671   0.24684   0.00000  Uiso   1.00
Pt182  Pt    0.31013   0.43671   0.37342   0.00000  Uiso   1.00
Pt183  Pt    0.34177   0.40506   0.24684   0.00000  Uiso   1.00
Pt184  Pt    0.34177   0.40506   0.37342   0.00000  Uiso   1.00
Pt185  Pt    0.34177   0.43671   0.27848   0.00000  Uiso   1.00
Pt186  Pt    0.34177   0.43671   0.34177   0.00000  Uiso   1.00
Co187  Co    0.31013   0.43671   0.31013   0.00000  Uiso   1.00
Co188  Co    0.34177   0.40506   0.31013   0.00000  Uiso   1.00
Co189  Co    0.34177   0.43671   0.21519   0.00000  Uiso   1.00
Pt190  Pt    0.37342   0.40506   0.27848   0.00000  Uiso   1.00
Pt191  Pt    0.37342   0.40506   0.34177   0.00000  Uiso   1.00
Pt192  Pt    0.37342   0.43671   0.24684   0.00000  Uiso   1.00
Pt193  Pt    0.37342   0.43671   0.37342   0.00000  Uiso   1.00
Pt194  Pt    0.40506   0.40506   0.24684   0.00000  Uiso   1.00
Pt195  Pt    0.40506   0.40506   0.37342   0.00000  Uiso   1.00
Pt196  Pt    0.40506   0.43671   0.27848   0.00000  Uiso   1.00
Pt197  Pt    0.40506   0.43671   0.34177   0.00000  Uiso   1.00
Co198  Co    0.37342   0.40506   0.21519   0.00000  Uiso   1.00
Co199  Co    0.37342   0.43671   0.31013   0.00000  Uiso   1.00
Co200  Co    0.40506   0.40506   0.31013   0.00000  Uiso   1.00
Co201  Co    0.40506   0.43671   0.21519   0.00000  Uiso   1.00
Pt202  Pt    0.43671   0.40506   0.27848   0.00000  Uiso   1.00
Pt203  Pt    0.43671   0.40506   0.34177   0.00000  Uiso   1.00
Pt204  Pt    0.43671   0.43671   0.24684   0.00000  Uiso   1.00
Pt205  Pt    0.43671   0.43671   0.37342   0.00000  Uiso   1.00
Pt206  Pt    0.46835   0.40506   0.24684   0.00000  Uiso   1.00
Pt207  Pt    0.46835   0.40506   0.37342   0.00000  Uiso   1.00
Pt208  Pt    0.46835   0.43671   0.27848   0.00000  Uiso   1.00
Pt209  Pt    0.46835   0.43671   0.34177   0.00000  Uiso   1.00
Co210  Co    0.43671   0.40506   0.21519   0.00000  Uiso   1.00
Co211  Co    0.43671   0.43671   0.31013   0.00000  Uiso   1.00
Co212  Co    0.46835   0.40506   0.31013   0.00000  Uiso   1.00
Co213  Co    0.46835   0.43671   0.21519   0.00000  Uiso   1.00
Pt214  Pt    0.50000   0.40506   0.27848   0.00000  Uiso   1.00
Pt215  Pt    0.50000   0.40506   0.34177   0.00000  Uiso   1.00
Pt216  Pt    0.50000   0.43671   0.24684   0.00000  Uiso   1.00
Pt217  Pt    0.50000   0.43671   0.37342   0.00000  Uiso   1.00
Pt218  Pt    0.53165   0.40506   0.24684   0.00000  Uiso   1.00
Pt219  Pt    0.53165   0.40506   0.37342   0.00000  Uiso   1.00
Pt220  Pt    0.53165   0.43671   0.27848   0.00000  Uiso   1.00
Pt221  Pt    0.53165   0.43671   0.34177   0.00000  Uiso   1.00
Co222  Co    0.50000   0.40506   0.21519   0.00000  Uiso   1.00
Co223  Co    0.50000   0.43671   0.31013   0.00000  Uiso   1.00
Co224  Co    0.53165   0.40506   0.31013   0.00000  Uiso   1.00
Co225  Co    0.53165   0.43671   0.21519   0.00000  Uiso   1.00
Pt226  Pt    0.56329   0.40506   0.27848   0.00000  Uiso   1.00
Pt227  Pt    0.56329   0.40506   0.34177   0.00000  Uiso   1.00
Pt228  Pt    0.56329   0.43671   0.24684   0.00000  Uiso   1.00
Pt229  Pt    0.56329   0.43671   0.37342   0.00000  Uiso   1.00
Pt230  Pt    0.59494   0.40506   0.24684   0.00000  Uiso   1.00
Pt231  Pt    0.59494   0.40506   0.37342   0.00000  Uiso   1.00
Pt232  Pt    0.59494   0.43671   0.27848   0.00000  Uiso   1.00
Pt233  Pt    0.59494   0.43671   0.34177   0.00000  Uiso   1.00
Co234  Co    0.56329   0.40506   0.21519   0.00000  Uiso   1.00
Co235  Co    0.56329   0.43671   0.31013   0.00000  Uiso   1.00
Co236  Co    0.59494   0.40506   0.31013   0.00000  Uiso   1.00
Co237  Co    0.59494   0.43671   0.21519   0.00000  Uiso   1.00
Pt238  Pt    0.62658   0.40506   0.27848   0.00000  Uiso   1.00
Pt239  Pt    0.62658   0.40506   0.34177   0.00000  Uiso   1.00
Pt240  Pt    0.62658   0.43671   0.24684   0.00000  Uiso   1.00
Pt241  Pt    0.62658   0.43671   0.37342   0.00000  Uiso   1.00
Pt242  Pt    0.65823   0.40506   0.24684   0.00000  Uiso   1.00
Pt243  Pt    0.65823   0.40506   0.37342   0.00000  Uiso   1.00
Pt244  Pt    0.65823   0.43671   0.27848   0.00000  Uiso   1.00
Pt245  Pt    0.65823   0.43671   0.34177   0.00000  Uiso   1.00
Co246  Co    0.62658   0.40506   0.21519   0.00000  Uiso   1.00
Co247  Co    0.62658   0.43671   0.31013   0.00000  Uiso   1.00
Co248  Co    0.65823   0.40506   0.31013   0.00000  Uiso   1.00
Co249  Co    0.65823   0.43671   0.21519   0.00000  Uiso   1.00
Pt250  Pt    0.68987   0.40506   0.27848   0.00000  Uiso   1.00
Pt251  Pt    0.68987   0.40506   0.34177   0.00000  Uiso   1.00
Pt252  Pt    0.68987   0.43671   0.24684   0.00000  Uiso   1.00
Pt253  Pt    0.68987   0.43671   0.37342   0.00000  Uiso   1.00
Pt254  Pt    0.72152   0.40506   0.37342   0.00000  Uiso   1.00
Pt255  Pt    0.72152   0.43671   0.27848   0.00000  Uiso   1.00
Pt256  Pt    0.72152   0.43671   0.34177   0.00000  Uiso   1.00
Co257  Co    0.68987   0.43671   0.31013   0.00000  Uiso   1.00
Co258  Co    0.72152   0.40506   0.31013   0.00000  Uiso   1.00
Pt259  Pt    0.75316   0.40506   0.34177   0.00000  Uiso   1.00
Pt260  Pt    0.75316   0.43671   0.37342   0.00000  Uiso   1.00
Pt261  Pt    0.78481   0.40506   0.37342   0.00000  Uiso   1.00
Pt262  Pt    0.78481   0.43671   0.34177   0.00000  Uiso   1.00
Co263  Co    0.75316   0.43671   0.31013   0.00000  Uiso   1.00
Pt264  Pt    0.21519   0.46835   0.37342   0.00000  Uiso   1.00
Pt265  Pt    0.21519   0.50000   0.34177   0.00000  Uiso   1.00
Pt266  Pt    0.24684   0.46835   0.34177   0.00000  Uiso   1.00
Pt267  Pt    0.24684   0.50000   0.37342   0.00000  Uiso   1.00
Pt268  Pt    0.27848   0.46835   0.37342   0.00000  Uiso   1.00
Pt269  Pt    0.27848   0.50000   0.27848   0.00000  Uiso   1.00
Pt270  Pt    0.27848   0.50000   0.34177   0.00000  Uiso   1.00
Co271  Co    0.24684   0.50000   0.31013   0.00000  Uiso   1.00
Co272  Co    0.27848   0.46835   0.31013   0.00000  Uiso   1.00
Pt273  Pt    0.31013   0.46835   0.27848   0.00000  Uiso   1.00
Pt274  Pt    0.31013   0.46835   0.34177   0.00000  Uiso   1.00
Pt275  Pt    0.31013   0.50000   0.24684   0.00000  Uiso   1.00
Pt276  Pt    0.31013   0.50000   0.37342   0.00000  Uiso   1.00
Pt277  Pt    0.34177   0.46835   0.24684   0.00000  Uiso   1.00
Pt278  Pt    0.34177   0.46835   0.37342   0.00000  Uiso   1.00
Pt279  Pt    0.34177   0.50000   0.27848   0.00000  Uiso   1.00
Pt280  Pt    0.34177   0.50000   0.34177   0.00000  Uiso   1.00
Co281  Co    0.31013   0.50000   0.31013   0.00000  Uiso   1.00
Co282  Co    0.34177   0.46835   0.31013   0.00000  Uiso   1.00
Co283  Co    0.34177   0.50000   0.21519   0.00000  Uiso   1.00
Pt284  Pt    0.37342   0.46835   0.27848   0.00000  Uiso   1.00
Pt285  Pt    0.37342   0.46835   0.34177   0.00000  Uiso   1.00
Pt286  Pt    0.37342   0.50000   0.24684   0.00000  Uiso   1.00
Pt287  Pt    0.37342   0.50000   0.37342   0.00000  Uiso   1.00
Pt288  Pt    0.40506   0.46835   0.24684   0.00000  Uiso   1.00
Pt289  Pt    0.40506   0.46835   0.37342   0.00000  Uiso   1.00
Pt290  Pt    0.40506   0.50000   0.27848   0.00000  Uiso   1.00
Pt291  Pt    0.40506   0.50000   0.34177   0.00000  Uiso   1.00
Co292  Co    0.37342   0.46835   0.21519   0.00000  Uiso   1.00
Co293  Co    0.37342   0.50000   0.31013   0.00000  Uiso   1.00
Co294  Co    0.40506   0.46835   0.31013   0.00000  Uiso   1.00
Co295  Co    0.40506   0.50000   0.21519   0.00000  Uiso   1.00
Pt296  Pt    0.43671   0.46835   0.27848   0.00000  Uiso   1.00
Pt297  Pt    0.43671   0.46835   0.34177   0.00000  Uiso   1.00
Pt298  Pt    0.43671   0.50000   0.24684   0.00000  Uiso   1.00
Pt299  Pt    0.43671   0.50000   0.37342   0.00000  Uiso   1.00
Pt300  Pt    0.46835   0.46835   0.24684   0.00000  Uiso   1.00
Pt301  Pt    0.46835   0.46835   0.37342   0.00000  Uiso   1.00
Pt302  Pt    0.46835   0.50000   0.27848   0.00000  Uiso   1.00
Pt303  Pt    0.46835   0.50000   0.34177   0.00000  Uiso   1.00
Co304  Co    0.43671   0.46835   0.21519   0.00000  Uiso   1.00
Co305  Co    0.43671   0.50000   0.31013   0.00000  Uiso   1.00
Co306  Co    0.46835   0.46835   0.31013   0.00000  Uiso   1.00
Co307  Co    0.46835   0.50000   0.21519   0.00000  Uiso   1.00
Pt308  Pt    0.50000   0.46835   0.27848   0.00000  Uiso   1.00
Pt309  Pt    0.50000   0.46835   0.34177   0.00000  Uiso   1.00
Pt310  Pt    0.50000   0.50000   0.24684   0.00000  Uiso   1.00
Pt311  Pt    0.50000   0.50000   0.37342   0.00000  Uiso   1.00
Pt312  Pt    0.53165   0.46835   0.24684   0.00000  Uiso   1.00
Pt313  Pt    0.53165   0.46835   0.37342   0.00000  Uiso   1.00
Pt314  Pt    0.53165   0.50000   0.27848   0.00000  Uiso   1.00
Pt315  Pt    0.53165   0.50000   0.34177   0.00000  Uiso   1.00
Co316  Co    0.50000   0.46835   0.21519   0.00000  Uiso   1.00
Co317  Co    0.50000   0.50000   0.31013   0.00000  Uiso   1.00
Co318  Co    0.53165   0.46835   0.31013   0.00000  Uiso   1.00
Co319  Co    0.53165   0.50000   0.21519   0.00000  Uiso   1.00
Pt320  Pt    0.56329   0.46835   0.27848   0.00000  Uiso   1.00
Pt321  Pt    0.56329   0.46835   0.34177   0.00000  Uiso   1.00
Pt322  Pt    0.56329   0.50000   0.24684   0.00000  Uiso   1.00
Pt323  Pt    0.56329   0.50000   0.37342   0.00000  Uiso   1.00
Pt324  Pt    0.59494   0.46835   0.24684   0.00000  Uiso   1.00
Pt325  Pt    0.59494   0.46835   0.37342   0.00000  Uiso   1.00
Pt326  Pt    0.59494   0.50000   0.27848   0.00000  Uiso   1.00
Pt327  Pt    0.59494   0.50000   0.34177   0.00000  Uiso   1.00
Co328  Co    0.56329   0.46835   0.21519   0.00000  Uiso   1.00
Co329  Co    0.56329   0.50000   0.31013   0.00000  Uiso   1.00
Co330  Co    0.59494   0.46835   0.31013   0.00000  Uiso   1.00
Co331  Co    0.59494   0.50000   0.21519   0.00000  Uiso   1.00
Pt332  Pt    0.62658   0.46835   0.27848   0.00000  Uiso   1.00
Pt333  Pt    0.62658   0.46835   0.34177   0.00000  Uiso   1.00
Pt334  Pt    0.62658   0.50000   0.24684   0.00000  Uiso   1.00
Pt335  Pt    0.62658   0.50000   0.37342   0.00000  Uiso   1.00
Pt336  Pt    0.65823   0.46835   0.24684   0.00000  Uiso   1.00
Pt337  Pt    0.65823   0.46835   0.37342   0.00000  Uiso   1.00
Pt338  Pt    0.65823   0.50000   0.27848   0.00000  Uiso   1.00
Pt339  Pt    0.65823   0.50000   0.34177   0.00000  Uiso   1.00
Co340  Co    0.62658   0.46835   0.21519   0.00000  Uiso   1.00
Co341  Co    0.62658   0.50000   0.31013   0.00000  Uiso   1.00
Co342  Co    0.65823   0.46835   0.31013   0.00000  Uiso   1.00
Co343  Co    0.65823   0.50000   0.21519   0.00000  Uiso   1.00
Pt344  Pt    0.68987   0.46835   0.27848   0.00000  Uiso   1.00
Pt345  Pt    0.68987   0.46835   0.34177   0.00000  Uiso   1.00
Pt346  Pt    0.68987   0.50000   0.24684   0.00000  Uiso   1.00
Pt347  Pt    0.68987   0.50000   0.37342   0.00000  Uiso   1.00
Pt348  Pt    0.72152   0.46835   0.37342   0.00000  Uiso   1.00
Pt349  Pt    0.72152   0.50000   0.27848   0.00000  Uiso   1.00
Pt350  Pt    0.72152   0.50000   0.34177   0.00000  Uiso   1.00
Co351  Co    0.68987   0.50000   0.31013   0.00000  Uiso   1.00
Co352  Co    0.72152   0.46835   0.31013   0.00000  Uiso   1.00
Pt353  Pt    0.75316   0.46835   0.34177   0.00000  Uiso   1.00
Pt354  Pt    0.75316   0.50000   0.37342   0.00000  Uiso   1.00
Pt355  Pt    0.78481   0.46835   0.37342   0.00000  Uiso   1.00
Pt356  Pt    0.78481   0.50000   0.34177   0.00000  Uiso   1.00
Co357  Co    0.75316   0.50000   0.31013   0.00000  Uiso   1.00
Pt358  Pt    0.21519   0.53165   0.37342   0.00000  Uiso   1.00
Pt359  Pt    0.21519   0.56329   0.34177   0.00000  Uiso   1.00
Pt360  Pt    0.24684   0.53165   0.34177   0.00000  Uiso   1.00
Pt361  Pt    0.24684   0.56329   0.37342   0.00000  Uiso   1.00
Pt362  Pt    0.27848   0.53165   0.37342   0.00000  Uiso   1.00
Pt363  Pt    0.27848   0.56329   0.27848   0.00000  Uiso   1.00
Pt364  Pt    0.27848   0.56329   0.34177   0.00000  Uiso   1.00
Co365  Co    0.24684   0.56329   0.31013   0.00000  Uiso   1.00
Co366  Co    0.27848   0.53165   0.31013   0.00000  Uiso   1.00
Pt367  Pt    0.31013   0.53165   0.27848   0.00000  Uiso   1.00
Pt368  Pt    0.31013   0.53165   0.34177   0.00000  Uiso   1.00
Pt369  Pt    0.31013   0.56329   0.24684   0.00000  Uiso   1.00
Pt370  Pt    0.31013   0.56329   0.37342   0.00000  Uiso   1.00
Pt371  Pt    0.34177   0.53165   0.24684   0.00000  Uiso   1.00
Pt372  Pt    0.34177   0.53165   0.37342   0.00000  Uiso   1.00
Pt373  Pt    0.34177   0.56329   0.27848   0.00000  Uiso   1.00
Pt374  Pt    0.34177   0.56329   0.34177   0.00000  Uiso   1.00
Co375  Co    0.31013   0.56329   0.31013   0.00000  Uiso   1.00
Co376  Co    0.34177   0.53165   0.31013   0.00000  Uiso   1.00
Co377  Co    0.34177   0.56329   0.21519   0.00000  Uiso   1.00
Pt378  Pt    0.37342   0.53165   0.27848   0.00000  Uiso   1.00
Pt379  Pt    0.37342   0.53165   0.34177   0.00000  Uiso   1.00
Pt380  Pt    0.37342   0.56329   0.24684   0.00000  Uiso   1.00
Pt381  Pt    0.37342   0.56329   0.37342   0.00000  Uiso   1.00
Pt382  Pt    0.40506   0.53165   0.24684   0.00000  Uiso   1.00
Pt383  Pt    0.40506   0.53165   0.37342   0.00000  Uiso   1.00
Pt384  Pt    0.40506   0.56329   0.27848   0.00000  Uiso   1.00
Pt385  Pt    0.40506   0.56329   0.34177   0.00000  Uiso   1.00
Co386  Co    0.37342   0.53165   0.21519   0.00000  Uiso   1.00
Co387  Co    0.37342   0.56329   0.31013   0.00000  Uiso   1.00
Co388  Co    0.40506   0.53165   0.31013   0.00000  Uiso   1.00
Co389  Co    0.40506   0.56329   0.21519   0.00000  Uiso   1.00
Pt390  Pt    0.43671   0.53165   0.27848   0.00000  Uiso   1.00
Pt391  Pt    0.43671   0.53165   0.34177   0.00000  Uiso   1.00
Pt392  Pt    0.43671   0.56329   0.24684   0.00000  Uiso   1.00
Pt393  Pt    0.43671   0.56329   0.37342   0.00000  Uiso   1.00
Pt394  Pt    0.46835   0.53165   0.24684   0.00000  Uiso   1.00
Pt395  Pt    0.46835   0.53165   0.37342   0.00000  Uiso   1.00
Pt396  Pt    0.46835   0.56329   0.27848   0.00000  Uiso   1.00
Pt397  Pt    0.46835   0.56329   0.34177   0.00000  Uiso   1.00
Co398  Co    0.43671   0.53165   0.21519   0.00000  Uiso   1.00
Co399  Co    0.43671   0.56329   0.31013   0.00000  Uiso   1.00
Co400  Co    0.46835   0.53165   0.31013   0.00000  Uiso   1.00
Co401  Co    0.46835   0.56329   0.21519   0.00000  Uiso   1.00
Pt402  Pt    0.50000   0.53165   0.27848   0.00000  Uiso   1.00
Pt403  Pt    0.50000   0.53165   0.34177   0.00000  Uiso   1.00
Pt404  Pt    0.50000   0.56329   0.24684   0.00000  Uiso   1.00
Pt405  Pt    0.50000   0.56329   0.37342   0.00000  Uiso   1.00
Pt406  Pt    0.53165   0.53165   0.24684   0.00000  Uiso   1.00
Pt407  Pt    0.53165   0.53165   0.37342   0.00000  Uiso   1.00
Pt408  Pt    0.53165   0.56329   0.27848   0.00000  Uiso   1.00
Pt409  Pt    0.53165   0.56329   0.34177   0.00000  Uiso   1.00
Co410  Co    0.50000   0.53165   0.21519   0.00000  Uiso   1.00
Co411  Co    0.50000   0.56329   0.31013   0.00000  Uiso   1.00
Co412  Co    0.53165   0.53165   0.31013   0.00000  Uiso   1.00
Co413  Co    0.53165   0.56329   0.21519   0.00000  Uiso   1.00
Pt414  Pt    0.56329   0.53165   0.27848   0.00000  Uiso   1.00
Pt415  Pt    0.56329   0.53165   0.34177   0.00000  Uiso   1.00
Pt416  Pt    0.56329   0.56329   0.24684   0.00000  Uiso   1.00
Pt417  Pt    0.56329   0.56329   0.37342   0.00000  Uiso   1.00
Pt418  Pt    0.59494   0.53165   0.24684   0.00000  Uiso   1.00
Pt419  Pt    0.59494   0.53165   0.37342   0.00000  Uiso   1.00
Pt420  Pt    0.59494   0.56329   0.27848   0.00000  Uiso   1.00
Pt421  Pt    0.59494   0.56329   0.34177   0.00000  Uiso   1.00
Co422  Co    0.56329   0.53165   0.21519   0.00000  Uiso   1.00
Co423  Co    0.56329   0.56329   0.31013   0.00000  Uiso   1.00
Co424  Co    0.59494   0.53165   0.31013   0.00000  Uiso   1.00
Co425  Co    0.59494   0.56329   0.21519   0.00000  Uiso   1.00
Pt426  Pt    0.62658   0.53165   0.27848   0.00000  Uiso   1.00
Pt427  Pt    0.62658   0.53165   0.34177   0.00000  Uiso   1.00
Pt428  Pt    0.62658   0.56329   0.24684   0.00000  Uiso   1.00
Pt429  Pt    0.62658   0.56329   0.37342   0.00000  Uiso   1.00
Pt430  Pt    0.65823   0.53165   0.24684   0.00000  Uiso   1.00
Pt431  Pt    0.65823   0.53165   0.37342   0.00000  Uiso   1.00
Pt432  Pt    0.65823   0.56329   0.27848   0.00000  Uiso   1.00
Pt433  Pt    0.65823   0.56329   0.34177   0.00000  Uiso   1.00
Co434  Co    0.62658   0.53165   0.21519   0.00000  Uiso   1.00
Co435  Co    0.62658   0.56329   0.31013   0.00000  Uiso   1.00
Co436  Co    0.65823   0.53165   0.31013   0.00000  Uiso   1.00
Co437  Co    0.65823   0.56329   0.21519   0.00000  Uiso   1.00
Pt438  Pt    0.68987   0.53165   0.27848   0.00000  Uiso   1.00
Pt439  Pt    0.68987   0.53165   0.34177   0.00000  Uiso   1.00
Pt440  Pt    0.68987   0.56329   0.24684   0.00000  Uiso   1.00
Pt441  Pt    0.68987   0.56329   0.37342   0.00000  Uiso   1.00
Pt442  Pt    0.72152   0.53165   0.37342   0.00000  Uiso   1.00
Pt443  Pt    0.72152   0.56329   0.27848   0.00000  Uiso   1.00
Pt444  Pt    0.72152   0.56329   0.34177   0.00000  Uiso   1.00
Co445  Co    0.68987   0.56329   0.31013   0.00000  Uiso   1.00
Co446  Co    0.72152   0.53165   0.31013   0.00000  Uiso   1.00
Pt447  Pt    0.75316   0.53165   0.34177   0.00000  Uiso   1.00
Pt448  Pt    0.75316   0.56329   0.37342   0.00000  Uiso   1.00
Pt449  Pt    0.78481   0.53165   0.37342   0.00000  Uiso   1.00
Pt450  Pt    0.78481   0.56329   0.34177   0.00000  Uiso   1.00
Co451  Co    0.75316   0.56329   0.31013   0.00000  Uiso   1.00
Pt452  Pt    0.21519   0.59494   0.37342   0.00000  Uiso   1.00
Pt453  Pt    0.24684   0.59494   0.34177   0.00000  Uiso   1.00
Pt454  Pt    0.24684   0.62658   0.37342   0.00000  Uiso   1.00
Pt455  Pt    0.27848   0.59494   0.37342   0.00000  Uiso   1.00
Pt456  Pt    0.27848   0.62658   0.34177   0.00000  Uiso   1.00
Co457  Co    0.27848   0.59494   0.31013   0.00000  Uiso   1.00
Pt458  Pt    0.31013   0.59494   0.27848   0.00000  Uiso   1.00
Pt459  Pt    0.31013   0.59494   0.34177   0.00000  Uiso   1.00
Pt460  Pt    0.31013   0.62658   0.37342   0.00000  Uiso   1.00
Pt461  Pt    0.34177   0.59494   0.24684   0.00000  Uiso   1.00
Pt462  Pt    0.34177   0.59494   0.37342   0.00000  Uiso   1.00
Pt463  Pt    0.34177   0.62658   0.27848   0.00000  Uiso   1.00
Pt464  Pt    0.34177   0.62658   0.34177   0.00000  Uiso   1.00
Co465  Co    0.31013   0.62658   0.31013   0.00000  Uiso   1.00
Co466  Co    0.34177   0.59494   0.31013   0.00000  Uiso   1.00
Pt467  Pt    0.37342   0.59494   0.27848   0.00000  Uiso   1.00
Pt468  Pt    0.37342   0.59494   0.34177   0.00000  Uiso   1.00
Pt469  Pt    0.37342   0.62658   0.24684   0.00000  Uiso   1.00
Pt470  Pt    0.37342   0.62658   0.37342   0.00000  Uiso   1.00
Pt471  Pt    0.40506   0.59494   0.24684   0.00000  Uiso   1.00
Pt472  Pt    0.40506   0.59494   0.37342   0.00000  Uiso   1.00
Pt473  Pt    0.40506   0.62658   0.27848   0.00000  Uiso   1.00
Pt474  Pt    0.40506   0.62658   0.34177   0.00000  Uiso   1.00
Co475  Co    0.37342   0.59494   0.21519   0.00000  Uiso   1.00
Co476  Co    0.37342   0.62658   0.31013   0.00000  Uiso   1.00
Co477  Co    0.40506   0.59494   0.31013   0.00000  Uiso   1.00
Co478  Co    0.40506   0.62658   0.21519   0.00000  Uiso   1.00
Pt479  Pt    0.43671   0.59494   0.27848   0.00000  Uiso   1.00
Pt480  Pt    0.43671   0.59494   0.34177   0.00000  Uiso   1.00
Pt481  Pt    0.43671   0.62658   0.24684   0.00000  Uiso   1.00
Pt482  Pt    0.43671   0.62658   0.37342   0.00000  Uiso   1.00
Pt483  Pt    0.46835   0.59494   0.24684   0.00000  Uiso   1.00
Pt484  Pt    0.46835   0.59494   0.37342   0.00000  Uiso   1.00
Pt485  Pt    0.46835   0.62658   0.27848   0.00000  Uiso   1.00
Pt486  Pt    0.46835   0.62658   0.34177   0.00000  Uiso   1.00
Co487  Co    0.43671   0.59494   0.21519   0.00000  Uiso   1.00
Co488  Co    0.43671   0.62658   0.31013   0.00000  Uiso   1.00
Co489  Co    0.46835   0.59494   0.31013   0.00000  Uiso   1.00
Co490  Co    0.46835   0.62658   0.21519   0.00000  Uiso   1.00
Pt491  Pt    0.50000   0.59494   0.27848   0.00000  Uiso   1.00
Pt492  Pt    0.50000   0.59494   0.34177   0.00000  Uiso   1.00
Pt493  Pt    0.50000   0.62658   0.24684   0.00000  Uiso   1.00
Pt494  Pt    0.50000   0.62658   0.37342   0.00000  Uiso   1.00
Pt495  Pt    0.53165   0.59494   0.24684   0.00000  Uiso   1.00
Pt496  Pt    0.53165   0.59494   0.37342   0.00000  Uiso   1.00
Pt497  Pt    0.53165   0.62658   0.27848   0.00000  Uiso   1.00
Pt498  Pt    0.53165   0.62658   0.34177   0.00000  Uiso   1.00
Co499  Co    0.50000   0.59494   0.21519   0.00000  Uiso   1.00
Co500  Co    0.50000   0.62658   0.31013   0.00000  Uiso   1.00
Co501  Co    0.53165   0.59494   0.31013   0.00000  Uiso   1.00
Co502  Co    0.53165   0.62658   0.21519   0.00000  Uiso   1.00
Pt503  Pt    0.56329   0.59494   0.27848   0.00000  Uiso   1.00
Pt504  Pt    0.56329   0.59494   0.34177   0.00000  Uiso   1.00
Pt505  Pt    0.56329   0.62658   0.24684   0.00000  Uiso   1.00
Pt506  Pt    0.56329   0.62658   0.37342   0.00000  Uiso   1.00
Pt507  Pt    0.59494   0.59494   0.24684   0.00000  Uiso   1.00
Pt508  Pt    0.59494   0.59494   0.37342   0.00000  Uiso   1.00
Pt509  Pt    0.59494   0.62658   0.27848   0.00000  Uiso   1.00
Pt510  Pt    0.59494   0.62658   0.34177   0.00000  Uiso   1.00
Co511  Co    0.56329   0.59494   0.21519   0.00000  Uiso   1.00
Co512  Co    0.56329   0.62658   0.31013   0.00000  Uiso   1.00
Co513  Co    0.59494   0.59494   0.31013   0.00000  Uiso   1.00
Co514  Co    0.59494   0.62658   0.21519   0.00000  Uiso   1.00
Pt515  Pt    0.62658   0.59494   0.27848   0.00000  Uiso   1.00
Pt516  Pt    0.62658   0.59494   0.34177   0.00000  Uiso   1.00
Pt517  Pt    0.62658   0.62658   0.24684   0.00000  Uiso   1.00
Pt518  Pt    0.62658   0.62658   0.37342   0.00000  Uiso   1.00
Pt519  Pt    0.65823   0.59494   0.24684   0.00000  Uiso   1.00
Pt520  Pt    0.65823   0.59494   0.37342   0.00000  Uiso   1.00
Pt521  Pt    0.65823   0.62658   0.27848   0.00000  Uiso   1.00
Pt522  Pt    0.65823   0.62658   0.34177   0.00000  Uiso   1.00
Co523  Co    0.62658   0.59494   0.21519   0.00000  Uiso   1.00
Co524  Co    0.62658   0.62658   0.31013   0.00000  Uiso   1.00
Co525  Co    0.65823   0.59494   0.31013   0.00000  Uiso   1.00
Pt526  Pt    0.68987   0.59494   0.27848   0.00000  Uiso   1.00
Pt527  Pt    0.68987   0.59494   0.34177   0.00000  Uiso   1.00
Pt528  Pt    0.68987   0.62658   0.37342   0.00000  Uiso   1.00
Pt529  Pt    0.72152   0.59494   0.37342   0.00000  Uiso   1.00
Pt530  Pt    0.72152   0.62658   0.34177   0.00000  Uiso   1.00
Co531  Co    0.68987   0.62658   0.31013   0.00000  Uiso   1.00
Co532  Co    0.72152   0.59494   0.31013   0.00000  Uiso   1.00
Pt533  Pt    0.75316   0.59494   0.34177   0.00000  Uiso   1.00
Pt534  Pt    0.75316   0.62658   0.37342   0.00000  Uiso   1.00
Pt535  Pt    0.78481   0.59494   0.37342   0.00000  Uiso   1.00
Pt536  Pt    0.27848   0.65823   0.37342   0.00000  Uiso   1.00
Pt537  Pt    0.27848   0.68987   0.34177   0.00000  Uiso   1.00
Co538  Co    0.27848   0.65823   0.31013   0.00000  Uiso   1.00
Pt539  Pt    0.31013   0.65823   0.27848   0.00000  Uiso   1.00
Pt540  Pt    0.31013   0.65823   0.34177   0.00000  Uiso   1.00
Pt541  Pt    0.31013   0.68987   0.37342   0.00000  Uiso   1.00
Pt542  Pt    0.34177   0.65823   0.37342   0.00000  Uiso   1.00
Pt543  Pt    0.34177   0.68987   0.27848   0.00000  Uiso   1.00
Pt544  Pt    0.34177   0.68987   0.34177   0.00000  Uiso   1.00
Co545  Co    0.31013   0.68987   0.31013   0.00000  Uiso   1.00
Co546  Co    0.34177   0.65823   0.31013   0.00000  Uiso   1.00
Pt547  Pt    0.37342   0.65823   0.27848   0.00000  Uiso   1.00
Pt548  Pt    0.37342   0.65823   0.34177   0.00000  Uiso   1.00
Pt549  Pt    0.37342   0.68987   0.37342   0.00000  Uiso   1.00
Pt550  Pt    0.40506   0.65823   0.24684   0.00000  Uiso   1.00
Pt551  Pt    0.40506   0.65823   0.37342   0.00000  Uiso   1.00
Pt552  Pt    0.40506   0.68987   0.27848   0.00000  Uiso   1.00
Pt553  Pt    0.40506   0.68987   0.34177   0.00000  Uiso   1.00
Co554  Co    0.37342   0.68987   0.31013   0.00000  Uiso   1.00
Co555  Co    0.40506   0.65823   0.31013   0.00000  Uiso   1.00
Pt556  Pt    0.43671   0.65823   0.27848   0.00000  Uiso   1.00
Pt557  Pt    0.43671   0.65823   0.34177   0.00000  Uiso   1.00
Pt558  Pt    0.43671   0.68987   0.24684   0.00000  Uiso   1.00
Pt559  Pt    0.43671   0.68987   0.37342   0.00000  Uiso   1.00
Pt560  Pt    0.46835   0.65823   0.24684   0.00000  Uiso   1.00
Pt561  Pt    0.46835   0.65823   0.37342   0.00000  Uiso   1.00
Pt562  Pt    0.46835   0.68987   0.27848   0.00000  Uiso   1.00
Pt563  Pt    0.46835   0.68987   0.34177   0.00000  Uiso   1.00
Co564  Co    0.43671   0.65823   0.21519   0.00000  Uiso   1.00
Co565  Co    0.43671   0.68987   0.31013   0.00000  Uiso   1.00
Co566  Co    0.46835   0.65823   0.31013   0.00000  Uiso   1.00
Pt567  Pt    0.50000   0.65823   0.27848   0.00000  Uiso   1.00
Pt568  Pt    0.50000   0.65823   0.34177   0.00000  Uiso   1.00
Pt569  Pt    0.50000   0.68987   0.24684   0.00000  Uiso   1.00
Pt570  Pt    0.50000   0.68987   0.37342   0.00000  Uiso   1.00
Pt571  Pt    0.53165   0.65823   0.24684   0.00000  Uiso   1.00
Pt572  Pt    0.53165   0.65823   0.37342   0.00000  Uiso   1.00
Pt573  Pt    0.53165   0.68987   0.27848   0.00000  Uiso   1.00
Pt574  Pt    0.53165   0.68987   0.34177   0.00000  Uiso   1.00
Co575  Co    0.50000   0.65823   0.21519   0.00000  Uiso   1.00
Co576  Co    0.50000   0.68987   0.31013   0.00000  Uiso   1.00
Co577  Co    0.53165   0.65823   0.31013   0.00000  Uiso   1.00
Pt578  Pt    0.56329   0.65823   0.27848   0.00000  Uiso   1.00
Pt579  Pt    0.56329   0.65823   0.34177   0.00000  Uiso   1.00
Pt580  Pt    0.56329   0.68987   0.24684   0.00000  Uiso   1.00
Pt581  Pt    0.56329   0.68987   0.37342   0.00000  Uiso   1.00
Pt582  Pt    0.59494   0.65823   0.24684   0.00000  Uiso   1.00
Pt583  Pt    0.59494   0.65823   0.37342   0.00000  Uiso   1.00
Pt584  Pt    0.59494   0.68987   0.27848   0.00000  Uiso   1.00
Pt585  Pt    0.59494   0.68987   0.34177   0.00000  Uiso   1.00
Co586  Co    0.56329   0.65823   0.21519   0.00000  Uiso   1.00
Co587  Co    0.56329   0.68987   0.31013   0.00000  Uiso   1.00
Co588  Co    0.59494   0.65823   0.31013   0.00000  Uiso   1.00
Pt589  Pt    0.62658   0.65823   0.27848   0.00000  Uiso   1.00
Pt590  Pt    0.62658   0.65823   0.34177   0.00000  Uiso   1.00
Pt591  Pt    0.62658   0.68987   0.37342   0.00000  Uiso   1.00
Pt592  Pt    0.65823   0.65823   0.37342   0.00000  Uiso   1.00
Pt593  Pt    0.65823   0.68987   0.27848   0.00000  Uiso   1.00
Pt594  Pt    0.65823   0.68987   0.34177   0.00000  Uiso   1.00
Co595  Co    0.62658   0.68987   0.31013   0.00000  Uiso   1.00
Co596  Co    0.65823   0.65823   0.31013   0.00000  Uiso   1.00
Pt597  Pt    0.68987   0.65823   0.27848   0.00000  Uiso   1.00
Pt598  Pt    0.68987   0.65823   0.34177   0.00000  Uiso   1.00
Pt599  Pt    0.68987   0.68987   0.37342   0.00000  Uiso   1.00
Pt600  Pt    0.72152   0.65823   0.37342   0.00000  Uiso   1.00
Pt601  Pt    0.72152   0.68987   0.34177   0.00000  Uiso   1.00
Co602  Co    0.68987   0.68987   0.31013   0.00000  Uiso   1.00
Co603  Co    0.72152   0.65823   0.31013   0.00000  Uiso   1.00
Pt604  Pt    0.31013   0.72152   0.34177   0.00000  Uiso   1.00
Pt605  Pt    0.34177   0.72152   0.37342   0.00000  Uiso   1.00
Co606  Co    0.34177   0.72152   0.31013   0.00000  Uiso   1.00
Pt607  Pt    0.37342   0.72152   0.34177   0.00000  Uiso   1.00
Pt608  Pt    0.37342   0.75316   0.37342   0.00000  Uiso   1.00
Pt609  Pt    0.40506   0.72152   0.37342   0.00000  Uiso   1.00
Pt610  Pt    0.40506   0.75316   0.34177   0.00000  Uiso   1.00
Co611  Co    0.40506   0.72152   0.31013   0.00000  Uiso   1.00
Pt612  Pt    0.43671   0.72152   0.27848   0.00000  Uiso   1.00
Pt613  Pt    0.43671   0.72152   0.34177   0.00000  Uiso   1.00
Pt614  Pt    0.43671   0.75316   0.37342   0.00000  Uiso   1.00
Pt615  Pt    0.46835   0.72152   0.37342   0.00000  Uiso   1.00
Pt616  Pt    0.46835   0.75316   0.34177   0.00000  Uiso   1.00
Co617  Co    0.43671   0.75316   0.31013   0.00000  Uiso   1.00
Co618  Co    0.46835   0.72152   0.31013   0.00000  Uiso   1.00
Pt619  Pt    0.50000   0.72152   0.27848   0.00000  Uiso   1.00
Pt620  Pt    0.50000   0.72152   0.34177   0.00000  Uiso   1.00
Pt621  Pt    0.50000   0.75316   0.37342   0.00000  Uiso   1.00
Pt622  Pt    0.53165   0.72152   0.37342   0.00000  Uiso   1.00
Pt623  Pt    0.53165   0.75316   0.34177   0.00000  Uiso   1.00
Co624  Co    0.50000   0.75316   0.31013   0.00000  Uiso   1.00
Co625  Co    0.53165   0.72152   0.31013   0.00000  Uiso   1.00
Pt626  Pt    0.56329   0.72152   0.27848   0.00000  Uiso   1.00
Pt627  Pt    0.56329   0.72152   0.34177   0.00000  Uiso   1.00
Pt628  Pt    0.56329   0.75316   0.37342   0.00000  Uiso   1.00
Pt629  Pt    0.59494   0.72152   0.37342   0.00000  Uiso   1.00
Pt630  Pt    0.59494   0.75316   0.34177   0.00000  Uiso   1.00
Co631  Co    0.56329   0.75316   0.31013   0.00000  Uiso   1.00
Co632  Co    0.59494   0.72152   0.31013   0.00000  Uiso   1.00
Pt633  Pt    0.62658   0.72152   0.34177   0.00000  Uiso   1.00
Pt634  Pt    0.62658   0.75316   0.37342   0.00000  Uiso   1.00
Pt635  Pt    0.65823   0.72152   0.37342   0.00000  Uiso   1.00
Co636  Co    0.65823   0.72152   0.31013   0.00000  Uiso   1.00
Pt637  Pt    0.68987   0.72152   0.34177   0.00000  Uiso   1.00
Pt638  Pt    0.40506   0.78481   0.37342   0.00000  Uiso   1.00
Pt639  Pt    0.43671   0.78481   0.34177   0.00000  Uiso   1.00
Pt640  Pt    0.46835   0.78481   0.37342   0.00000  Uiso   1.00
Pt641  Pt    0.50000   0.78481   0.34177   0.00000  Uiso   1.00
Pt642  Pt    0.53165   0.78481   0.37342   0.00000  Uiso   1.00
Pt643  Pt    0.56329   0.78481   0.34177   0.00000  Uiso   1.00
Pt644  Pt    0.59494   0.78481   0.37342   0.00000  Uiso   1.00
Pt645  Pt    0.40506   0.18355   0.46835   0.00000  Uiso   1.00
Pt646  Pt    0.40506   0.18355   0.53165   0.00000  Uiso   1.00
Pt647  Pt    0.43671   0.18355   0.43671   0.00000  Uiso   1.00
Pt648  Pt    0.43671   0.18355   0.56329   0.00000  Uiso   1.00
Pt649  Pt    0.46835   0.18355   0.46835   0.00000  Uiso   1.00
Pt650  Pt    0.46835   0.18355   0.53165   0.00000  Uiso   1.00
Co651  Co    0.43671   0.18355   0.50000   0.00000  Uiso   1.00
Co652  Co    0.46835   0.18355   0.40506   0.00000  Uiso   1.00
Pt653  Pt    0.50000   0.18355   0.43671   0.00000  Uiso   1.00
Pt654  Pt    0.50000   0.18355   0.56329   0.00000  Uiso   1.00
Pt655  Pt    0.53165   0.18355   0.46835   0.00000  Uiso   1.00
Pt656  Pt    0.53165   0.18355   0.53165   0.00000  Uiso   1.00
Co657  Co    0.50000   0.18355   0.50000   0.00000  Uiso   1.00
Co658  Co    0.53165   0.18355   0.40506   0.00000  Uiso   1.00
Pt659  Pt    0.56329   0.18355   0.43671   0.00000  Uiso   1.00
Pt660  Pt    0.56329   0.18355   0.56329   0.00000  Uiso   1.00
Pt661  Pt    0.59494   0.18355   0.46835   0.00000  Uiso   1.00
Pt662  Pt    0.59494   0.18355   0.53165   0.00000  Uiso   1.00
Co663  Co    0.56329   0.18355   0.50000   0.00000  Uiso   1.00
Pt664  Pt    0.31013   0.24684   0.43671   0.00000  Uiso   1.00
Pt665  Pt    0.31013   0.24684   0.56329   0.00000  Uiso   1.00
Pt666  Pt    0.34177   0.21519   0.43671   0.00000  Uiso   1.00
Pt667  Pt    0.34177   0.21519   0.56329   0.00000  Uiso   1.00
Pt668  Pt    0.34177   0.24684   0.46835   0.00000  Uiso   1.00
Pt669  Pt    0.34177   0.24684   0.53165   0.00000  Uiso   1.00
Co670  Co    0.31013   0.24684   0.50000   0.00000  Uiso   1.00
Co671  Co    0.34177   0.21519   0.50000   0.00000  Uiso   1.00
Co672  Co    0.34177   0.24684   0.40506   0.00000  Uiso   1.00
Pt673  Pt    0.37342   0.21519   0.46835   0.00000  Uiso   1.00
Pt674  Pt    0.37342   0.21519   0.53165   0.00000  Uiso   1.00
Pt675  Pt    0.37342   0.24684   0.43671   0.00000  Uiso   1.00
Pt676  Pt    0.37342   0.24684   0.56329   0.00000  Uiso   1.00
Pt677  Pt    0.40506   0.21519   0.43671   0.00000  Uiso   1.00
Pt678  Pt    0.40506   0.21519   0.56329   0.00000  Uiso   1.00
Pt679  Pt    0.40506   0.24684   0.46835   0.00000  Uiso   1.00
Pt680  Pt    0.40506   0.24684   0.53165   0.00000  Uiso   1.00
Co681  Co    0.37342   0.21519   0.40506   0.00000  Uiso   1.00
Co682  Co    0.37342   0.24684   0.50000   0.00000  Uiso   1.00
Co683  Co    0.40506   0.21519   0.50000   0.00000  Uiso   1.00
Co684  Co    0.40506   0.24684   0.40506   0.00000  Uiso   1.00
Pt685  Pt    0.43671   0.21519   0.46835   0.00000  Uiso   1.00
Pt686  Pt    0.43671   0.21519   0.53165   0.00000  Uiso   1.00
Pt687  Pt    0.43671   0.24684   0.43671   0.00000  Uiso   1.00
Pt688  Pt    0.43671   0.24684   0.56329   0.00000  Uiso   1.00
Pt689  Pt    0.46835   0.21519   0.43671   0.00000  Uiso   1.00
Pt690  Pt    0.46835   0.21519   0.56329   0.00000  Uiso   1.00
Pt691  Pt    0.46835   0.24684   0.46835   0.00000  Uiso   1.00
Pt692  Pt    0.46835   0.24684   0.53165   0.00000  Uiso   1.00
Co693  Co    0.43671   0.21519   0.40506   0.00000  Uiso   1.00
Co694  Co    0.43671   0.24684   0.50000   0.00000  Uiso   1.00
Co695  Co    0.46835   0.21519   0.50000   0.00000  Uiso   1.00
Co696  Co    0.46835   0.24684   0.40506   0.00000  Uiso   1.00
Pt697  Pt    0.50000   0.21519   0.46835   0.00000  Uiso   1.00
Pt698  Pt    0.50000   0.21519   0.53165   0.00000  Uiso   1.00
Pt699  Pt    0.50000   0.24684   0.43671   0.00000  Uiso   1.00
Pt700  Pt    0.50000   0.24684   0.56329   0.00000  Uiso   1.00
Pt701  Pt    0.53165   0.21519   0.43671   0.00000  Uiso   1.00
Pt702  Pt    0.53165   0.21519   0.56329   0.00000  Uiso   1.00
Pt703  Pt    0.53165   0.24684   0.46835   0.00000  Uiso   1.00
Pt704  Pt    0.53165   0.24684   0.53165   0.00000  Uiso   1.00
Co705  Co    0.50000   0.21519   0.40506   0.00000  Uiso   1.00
Co706  Co    0.50000   0.24684   0.50000   0.00000  Uiso   1.00
Co707  Co    0.53165   0.21519   0.50000   0.00000  Uiso   1.00
Co708  Co    0.53165   0.24684   0.40506   0.00000  Uiso   1.00
Pt709  Pt    0.56329   0.21519   0.46835   0.00000  Uiso   1.00
Pt710  Pt    0.56329   0.21519   0.53165   0.00000  Uiso   1.00
Pt711  Pt    0.56329   0.24684   0.43671   0.00000  Uiso   1.00
Pt712  Pt    0.56329   0.24684   0.56329   0.00000  Uiso   1.00
Pt713  Pt    0.59494   0.21519   0.43671   0.00000  Uiso   1.00
Pt714  Pt    0.59494   0.21519   0.56329   0.00000  Uiso   1.00
Pt715  Pt    0.59494   0.24684   0.46835   0.00000  Uiso   1.00
Pt716  Pt    0.59494   0.24684   0.53165   0.00000  Uiso   1.00
Co717  Co    0.56329   0.21519   0.40506   0.00000  Uiso   1.00
Co718  Co    0.56329   0.24684   0.50000   0.00000  Uiso   1.00
Co719  Co    0.59494   0.21519   0.50000   0.00000  Uiso   1.00
Co720  Co    0.59494   0.24684   0.40506   0.00000  Uiso   1.00
Pt721  Pt    0.62658   0.21519   0.46835   0.00000  Uiso   1.00
Pt722  Pt    0.62658   0.21519   0.53165   0.00000  Uiso   1.00
Pt723  Pt    0.62658   0.24684   0.43671   0.00000  Uiso   1.00
Pt724  Pt    0.62658   0.24684   0.56329   0.00000  Uiso   1.00
Pt725  Pt    0.65823   0.21519   0.43671   0.00000  Uiso   1.00
Pt726  Pt    0.65823   0.21519   0.56329   0.00000  Uiso   1.00
Pt727  Pt    0.65823   0.24684   0.46835   0.00000  Uiso   1.00
Pt728  Pt    0.65823   0.24684   0.53165   0.00000  Uiso   1.00
Co729  Co    0.62658   0.21519   0.40506   0.00000  Uiso   1.00
Co730  Co    0.62658   0.24684   0.50000   0.00000  Uiso   1.00
Co731  Co    0.65823   0.21519   0.50000   0.00000  Uiso   1.00
Co732  Co    0.65823   0.24684   0.40506   0.00000  Uiso   1.00
Pt733  Pt    0.68987   0.24684   0.43671   0.00000  Uiso   1.00
Pt734  Pt    0.68987   0.24684   0.56329   0.00000  Uiso   1.00
Co735  Co    0.68987   0.24684   0.50000   0.00000  Uiso   1.00
Pt736  Pt    0.24684   0.31013   0.43671   0.00000  Uiso   1.00
Pt737  Pt    0.24684   0.31013   0.56329   0.00000  Uiso   1.00
Pt738  Pt    0.27848   0.27848   0.43671   0.00000  Uiso   1.00
Pt739  Pt    0.27848   0.27848   0.56329   0.00000  Uiso   1.00
Pt740  Pt    0.27848   0.31013   0.46835   0.00000  Uiso   1.00
Pt741  Pt    0.27848   0.31013   0.53165   0.00000  Uiso   1.00
Co742  Co    0.24684   0.31013   0.50000   0.00000  Uiso   1.00
Co743  Co    0.27848   0.27848   0.50000   0.00000  Uiso   1.00
Co744  Co    0.27848   0.31013   0.40506   0.00000  Uiso   1.00
Pt745  Pt    0.31013   0.27848   0.46835   0.00000  Uiso   1.00
Pt746  Pt    0.31013   0.27848   0.53165   0.00000  Uiso   1.00
Pt747  Pt    0.31013   0.31013   0.43671   0.00000  Uiso   1.00
Pt748  Pt    0.31013   0.31013   0.56329   0.00000  Uiso   1.00
Pt749  Pt    0.34177   0.27848   0.43671   0.00000  Uiso   1.00
Pt750  Pt    0.34177   0.27848   0.56329   0.00000  Uiso   1.00
Pt751  Pt    0.34177   0.31013   0.46835   0.00000  Uiso   1.00
Pt752  Pt    0.34177   0.31013   0.53165   0.00000  Uiso   1.00
Co753  Co    0.31013   0.27848   0.40506   0.00000  Uiso   1.00
Co754  Co    0.31013   0.31013   0.50000   0.00000  Uiso   1.00
Co755  Co    0.34177   0.27848   0.50000   0.00000  Uiso   1.00
Co756  Co    0.34177   0.31013   0.40506   0.00000  Uiso   1.00
Pt757  Pt    0.37342   0.27848   0.46835   0.00000  Uiso   1.00
Pt758  Pt    0.37342   0.27848   0.53165   0.00000  Uiso   1.00
Pt759  Pt    0.37342   0.31013   0.43671   0.00000  Uiso   1.00
Pt760  Pt    0.37342   0.31013   0.56329   0.00000  Uiso   1.00
Pt761  Pt    0.40506   0.27848   0.43671   0.00000  Uiso   1.00
Pt762  Pt    0.40506   0.27848   0.56329   0.00000  Uiso   1.00
Pt763  Pt    0.40506   0.31013   0.46835   0.00000  Uiso   1.00
Pt764  Pt    0.40506   0.31013   0.53165   0.00000  Uiso   1.00
Co765  Co    0.37342   0.27848   0.40506   0.00000  Uiso   1.00
Co766  Co    0.37342   0.31013   0.50000   0.00000  Uiso   1.00
Co767  Co    0.40506   0.27848   0.50000   0.00000  Uiso   1.00
Co768  Co    0.40506   0.31013   0.40506   0.00000  Uiso   1.00
Pt769  Pt    0.43671   0.27848   0.46835   0.00000  Uiso   1.00
Pt770  Pt    0.43671   0.27848   0.53165   0.00000  Uiso   1.00
Pt771  Pt    0.43671   0.31013   0.43671   0.00000  Uiso   1.00
Pt772  Pt    0.43671   0.31013   0.56329   0.00000  Uiso   1.00
Pt773  Pt    0.46835   0.27848   0.43671   0.00000  Uiso   1.00
Pt774  Pt    0.46835   0.27848   0.56329   0.00000  Uiso   1.00
Pt775  Pt    0.46835   0.31013   0.46835   0.00000  Uiso   1.00
Pt776  Pt    0.46835   0.31013   0.53165   0.00000  Uiso   1.00
Co777  Co    0.43671   0.27848   0.40506   0.00000  Uiso   1.00
Co778  Co    0.43671   0.31013   0.50000   0.00000  Uiso   1.00
Co779  Co    0.46835   0.27848   0.50000   0.00000  Uiso   1.00
Co780  Co    0.46835   0.31013   0.40506   0.00000  Uiso   1.00
Pt781  Pt    0.50000   0.27848   0.46835   0.00000  Uiso   1.00
Pt782  Pt    0.50000   0.27848   0.53165   0.00000  Uiso   1.00
Pt783  Pt    0.50000   0.31013   0.43671   0.00000  Uiso   1.00
Pt784  Pt    0.50000   0.31013   0.56329   0.00000  Uiso   1.00
Pt785  Pt    0.53165   0.27848   0.43671   0.00000  Uiso   1.00
Pt786  Pt    0.53165   0.27848   0.56329   0.00000  Uiso   1.00
Pt787  Pt    0.53165   0.31013   0.46835   0.00000  Uiso   1.00
Pt788  Pt    0.53165   0.31013   0.53165   0.00000  Uiso   1.00
Co789  Co    0.50000   0.27848   0.40506   0.00000  Uiso   1.00
Co790  Co    0.50000   0.31013   0.50000   0.00000  Uiso   1.00
Co791  Co    0.53165   0.27848   0.50000   0.00000  Uiso   1.00
Co792  Co    0.53165   0.31013   0.40506   0.00000  Uiso   1.00
Pt793  Pt    0.56329   0.27848   0.46835   0.00000  Uiso   1.00
Pt794  Pt    0.56329   0.27848   0.53165   0.00000  Uiso   1.00
Pt795  Pt    0.56329   0.31013   0.43671   0.00000  Uiso   1.00
Pt796  Pt    0.56329   0.31013   0.56329   0.00000  Uiso   1.00
Pt797  Pt    0.59494   0.27848   0.43671   0.00000  Uiso   1.00
Pt798  Pt    0.59494   0.27848   0.56329   0.00000  Uiso   1.00
Pt799  Pt    0.59494   0.31013   0.46835   0.00000  Uiso   1.00
Pt800  Pt    0.59494   0.31013   0.53165   0.00000  Uiso   1.00
Co801  Co    0.56329   0.27848   0.40506   0.00000  Uiso   1.00
Co802  Co    0.56329   0.31013   0.50000   0.00000  Uiso   1.00
Co803  Co    0.59494   0.27848   0.50000   0.00000  Uiso   1.00
Co804  Co    0.59494   0.31013   0.40506   0.00000  Uiso   1.00
Pt805  Pt    0.62658   0.27848   0.46835   0.00000  Uiso   1.00
Pt806  Pt    0.62658   0.27848   0.53165   0.00000  Uiso   1.00
Pt807  Pt    0.62658   0.31013   0.43671   0.00000  Uiso   1.00
Pt808  Pt    0.62658   0.31013   0.56329   0.00000  Uiso   1.00
Pt809  Pt    0.65823   0.27848   0.43671   0.00000  Uiso   1.00
Pt810  Pt    0.65823   0.27848   0.56329   0.00000  Uiso   1.00
Pt811  Pt    0.65823   0.31013   0.46835   0.00000  Uiso   1.00
Pt812  Pt    0.65823   0.31013   0.53165   0.00000  Uiso   1.00
Co813  Co    0.62658   0.27848   0.40506   0.00000  Uiso   1.00
Co814  Co    0.62658   0.31013   0.50000   0.00000  Uiso   1.00
Co815  Co    0.65823   0.27848   0.50000   0.00000  Uiso   1.00
Co816  Co    0.65823   0.31013   0.40506   0.00000  Uiso   1.00
Pt817  Pt    0.68987   0.27848   0.46835   0.00000  Uiso   1.00
Pt818  Pt    0.68987   0.27848   0.53165   0.00000  Uiso   1.00
Pt819  Pt    0.68987   0.31013   0.43671   0.00000  Uiso   1.00
Pt820  Pt    0.68987   0.31013   0.56329   0.00000  Uiso   1.00
Pt821  Pt    0.72152   0.27848   0.43671   0.00000  Uiso   1.00
Pt822  Pt    0.72152   0.27848   0.56329   0.00000  Uiso   1.00
Pt823  Pt    0.72152   0.31013   0.46835   0.00000  Uiso   1.00
Pt824  Pt    0.72152   0.31013   0.53165   0.00000  Uiso   1.00
Co825  Co    0.68987   0.27848   0.40506   0.00000  Uiso   1.00
Co826  Co    0.68987   0.31013   0.50000   0.00000  Uiso   1.00
Co827  Co    0.72152   0.27848   0.50000   0.00000  Uiso   1.00
Co828  Co    0.72152   0.31013   0.40506   0.00000  Uiso   1.00
Pt829  Pt    0.75316   0.31013   0.43671   0.00000  Uiso   1.00
Pt830  Pt    0.75316   0.31013   0.56329   0.00000  Uiso   1.00
Co831  Co    0.75316   0.31013   0.50000   0.00000  Uiso   1.00
Pt832  Pt    0.21519   0.34177   0.43671   0.00000  Uiso   1.00
Pt833  Pt    0.21519   0.34177   0.56329   0.00000  Uiso   1.00
Pt834  Pt    0.21519   0.37342   0.46835   0.00000  Uiso   1.00
Pt835  Pt    0.21519   0.37342   0.53165   0.00000  Uiso   1.00
Co836  Co    0.21519   0.34177   0.50000   0.00000  Uiso   1.00
Co837  Co    0.21519   0.37342   0.40506   0.00000  Uiso   1.00
Pt838  Pt    0.24684   0.34177   0.46835   0.00000  Uiso   1.00
Pt839  Pt    0.24684   0.34177   0.53165   0.00000  Uiso   1.00
Pt840  Pt    0.24684   0.37342   0.43671   0.00000  Uiso   1.00
Pt841  Pt    0.24684   0.37342   0.56329   0.00000  Uiso   1.00
Pt842  Pt    0.27848   0.34177   0.43671   0.00000  Uiso   1.00
Pt843  Pt    0.27848   0.34177   0.56329   0.00000  Uiso   1.00
Pt844  Pt    0.27848   0.37342   0.46835   0.00000  Uiso   1.00
Pt845  Pt    0.27848   0.37342   0.53165   0.00000  Uiso   1.00
Co846  Co    0.24684   0.34177   0.40506   0.00000  Uiso   1.00
Co847  Co    0.24684   0.37342   0.50000   0.00000  Uiso   1.00
Co848  Co    0.27848   0.34177   0.50000   0.00000  Uiso   1.00
Co849  Co    0.27848   0.37342   0.40506   0.00000  Uiso   1.00
Pt850  Pt    0.31013   0.34177   0.46835   0.00000  Uiso   1.00
Pt851  Pt    0.31013   0.34177   0.53165   0.00000  Uiso   1.00
Pt852  Pt    0.31013   0.37342   0.43671   0.00000  Uiso   1.00
Pt853  Pt    0.31013   0.37342   0.56329   0.00000  Uiso   1.00
Pt854  Pt    0.34177   0.34177   0.43671   0.00000  Uiso   1.00
Pt855  Pt    0.34177   0.34177   0.56329   0.00000  Uiso   1.00
Pt856  Pt    0.34177   0.37342   0.46835   0.00000  Uiso   1.00
Pt857  Pt    0.34177   0.37342   0.53165   0.00000  Uiso   1.00
Co858  Co    0.31013   0.34177   0.40506   0.00000  Uiso   1.00
Co859  Co    0.31013   0.37342   0.50000   0.00000  Uiso   1.00
Co860  Co    0.34177   0.34177   0.50000   0.00000  Uiso   1.00
Co861  Co    0.34177   0.37342   0.40506   0.00000  Uiso   1.00
Pt862  Pt    0.37342   0.34177   0.46835   0.00000  Uiso   1.00
Pt863  Pt    0.37342   0.34177   0.53165   0.00000  Uiso   1.00
Pt864  Pt    0.37342   0.37342   0.43671   0.00000  Uiso   1.00
Pt865  Pt    0.37342   0.37342   0.56329   0.00000  Uiso   1.00
Pt866  Pt    0.40506   0.34177   0.43671   0.00000  Uiso   1.00
Pt867  Pt    0.40506   0.34177   0.56329   0.00000  Uiso   1.00
Pt868  Pt    0.40506   0.37342   0.46835   0.00000  Uiso   1.00
Pt869  Pt    0.40506   0.37342   0.53165   0.00000  Uiso   1.00
Co870  Co    0.37342   0.34177   0.40506   0.00000  Uiso   1.00
Co871  Co    0.37342   0.37342   0.50000   0.00000  Uiso   1.00
Co872  Co    0.40506   0.34177   0.50000   0.00000  Uiso   1.00
Co873  Co    0.40506   0.37342   0.40506   0.00000  Uiso   1.00
Pt874  Pt    0.43671   0.34177   0.46835   0.00000  Uiso   1.00
Pt875  Pt    0.43671   0.34177   0.53165   0.00000  Uiso   1.00
Pt876  Pt    0.43671   0.37342   0.43671   0.00000  Uiso   1.00
Pt877  Pt    0.43671   0.37342   0.56329   0.00000  Uiso   1.00
Pt878  Pt    0.46835   0.34177   0.43671   0.00000  Uiso   1.00
Pt879  Pt    0.46835   0.34177   0.56329   0.00000  Uiso   1.00
Pt880  Pt    0.46835   0.37342   0.46835   0.00000  Uiso   1.00
Pt881  Pt    0.46835   0.37342   0.53165   0.00000  Uiso   1.00
Co882  Co    0.43671   0.34177   0.40506   0.00000  Uiso   1.00
Co883  Co    0.43671   0.37342   0.50000   0.00000  Uiso   1.00
Co884  Co    0.46835   0.34177   0.50000   0.00000  Uiso   1.00
Co885  Co    0.46835   0.37342   0.40506   0.00000  Uiso   1.00
Pt886  Pt    0.50000   0.34177   0.46835   0.00000  Uiso   1.00
Pt887  Pt    0.50000   0.34177   0.53165   0.00000  Uiso   1.00
Pt888  Pt    0.50000   0.37342   0.43671   0.00000  Uiso   1.00
Pt889  Pt    0.50000   0.37342   0.56329   0.00000  Uiso   1.00
Pt890  Pt    0.53165   0.34177   0.43671   0.00000  Uiso   1.00
Pt891  Pt    0.53165   0.34177   0.56329   0.00000  Uiso   1.00
Pt892  Pt    0.53165   0.37342   0.46835   0.00000  Uiso   1.00
Pt893  Pt    0.53165   0.37342   0.53165   0.00000  Uiso   1.00
Co894  Co    0.50000   0.34177   0.40506   0.00000  Uiso   1.00
Co895  Co    0.50000   0.37342   0.50000   0.00000  Uiso   1.00
Co896  Co    0.53165   0.34177   0.50000   0.00000  Uiso   1.00
Co897  Co    0.53165   0.37342   0.40506   0.00000  Uiso   1.00
Pt898  Pt    0.56329   0.34177   0.46835   0.00000  Uiso   1.00
Pt899  Pt    0.56329   0.34177   0.53165   0.00000  Uiso   1.00
Pt900  Pt    0.56329   0.37342   0.43671   0.00000  Uiso   1.00
Pt901  Pt    0.56329   0.37342   0.56329   0.00000  Uiso   1.00
Pt902  Pt    0.59494   0.34177   0.43671   0.00000  Uiso   1.00
Pt903  Pt    0.59494   0.34177   0.56329   0.00000  Uiso   1.00
Pt904  Pt    0.59494   0.37342   0.46835   0.00000  Uiso   1.00
Pt905  Pt    0.59494   0.37342   0.53165   0.00000  Uiso   1.00
Co906  Co    0.56329   0.34177   0.40506   0.00000  Uiso   1.00
Co907  Co    0.56329   0.37342   0.50000   0.00000  Uiso   1.00
Co908  Co    0.59494   0.34177   0.50000   0.00000  Uiso   1.00
Co909  Co    0.59494   0.37342   0.40506   0.00000  Uiso   1.00
Pt910  Pt    0.62658   0.34177   0.46835   0.00000  Uiso   1.00
Pt911  Pt    0.62658   0.34177   0.53165   0.00000  Uiso   1.00
Pt912  Pt    0.62658   0.37342   0.43671   0.00000  Uiso   1.00
Pt913  Pt    0.62658   0.37342   0.56329   0.00000  Uiso   1.00
Pt914  Pt    0.65823   0.34177   0.43671   0.00000  Uiso   1.00
Pt915  Pt    0.65823   0.34177   0.56329   0.00000  Uiso   1.00
Pt916  Pt    0.65823   0.37342   0.46835   0.00000  Uiso   1.00
Pt917  Pt    0.65823   0.37342   0.53165   0.00000  Uiso   1.00
Co918  Co    0.62658   0.34177   0.40506   0.00000  Uiso   1.00
Co919  Co    0.62658   0.37342   0.50000   0.00000  Uiso   1.00
Co920  Co    0.65823   0.34177   0.50000   0.00000  Uiso   1.00
Co921  Co    0.65823   0.37342   0.40506   0.00000  Uiso   1.00
Pt922  Pt    0.68987   0.34177   0.46835   0.00000  Uiso   1.00
Pt923  Pt    0.68987   0.34177   0.53165   0.00000  Uiso   1.00
Pt924  Pt    0.68987   0.37342   0.43671   0.00000  Uiso   1.00
Pt925  Pt    0.68987   0.37342   0.56329   0.00000  Uiso   1.00
Pt926  Pt    0.72152   0.34177   0.43671   0.00000  Uiso   1.00
Pt927  Pt    0.72152   0.34177   0.56329   0.00000  Uiso   1.00
Pt928  Pt    0.72152   0.37342   0.46835   0.00000  Uiso   1.00
Pt929  Pt    0.72152   0.37342   0.53165   0.00000  Uiso   1.00
Co930  Co    0.68987   0.34177   0.40506   0.00000  Uiso   1.00
Co931  Co    0.68987   0.37342   0.50000   0.00000  Uiso   1.00
Co932  Co    0.72152   0.34177   0.50000   0.00000  Uiso   1.00
Co933  Co    0.72152   0.37342   0.40506   0.00000  Uiso   1.00
Pt934  Pt    0.75316   0.34177   0.46835   0.00000  Uiso   1.00
Pt935  Pt    0.75316   0.34177   0.53165   0.00000  Uiso   1.00
Pt936  Pt    0.75316   0.37342   0.43671   0.00000  Uiso   1.00
Pt937  Pt    0.75316   0.37342   0.56329   0.00000  Uiso   1.00
Pt938  Pt    0.78481   0.34177   0.43671   0.00000  Uiso   1.00
Pt939  Pt    0.78481   0.34177   0.56329   0.00000  Uiso   1.00
Pt940  Pt    0.78481   0.37342   0.46835   0.00000  Uiso   1.00
Pt941  Pt    0.78481   0.37342   0.53165   0.00000  Uiso   1.00
Co942  Co    0.75316   0.34177   0.40506   0.00000  Uiso   1.00
Co943  Co    0.75316   0.37342   0.50000   0.00000  Uiso   1.00
Co944  Co    0.78481   0.34177   0.50000   0.00000  Uiso   1.00
Co945  Co    0.78481   0.37342   0.40506   0.00000  Uiso   1.00
Pt946  Pt    0.18355   0.40506   0.46835   0.00000  Uiso   1.00
Pt947  Pt    0.18355   0.40506   0.53165   0.00000  Uiso   1.00
Pt948  Pt    0.18355   0.43671   0.43671   0.00000  Uiso   1.00
Pt949  Pt    0.18355   0.43671   0.56329   0.00000  Uiso   1.00
Pt950  Pt    0.21519   0.40506   0.43671   0.00000  Uiso   1.00
Pt951  Pt    0.21519   0.40506   0.56329   0.00000  Uiso   1.00
Pt952  Pt    0.21519   0.43671   0.46835   0.00000  Uiso   1.00
Pt953  Pt    0.21519   0.43671   0.53165   0.00000  Uiso   1.00
Co954  Co    0.18355   0.43671   0.50000   0.00000  Uiso   1.00
Co955  Co    0.21519   0.40506   0.50000   0.00000  Uiso   1.00
Co956  Co    0.21519   0.43671   0.40506   0.00000  Uiso   1.00
Pt957  Pt    0.24684   0.40506   0.46835   0.00000  Uiso   1.00
Pt958  Pt    0.24684   0.40506   0.53165   0.00000  Uiso   1.00
Pt959  Pt    0.24684   0.43671   0.43671   0.00000  Uiso   1.00
Pt960  Pt    0.24684   0.43671   0.56329   0.00000  Uiso   1.00
Pt961  Pt    0.27848   0.40506   0.43671   0.00000  Uiso   1.00
Pt962  Pt    0.27848   0.40506   0.56329   0.00000  Uiso   1.00
Pt963  Pt    0.27848   0.43671   0.46835   0.00000  Uiso   1.00
Pt964  Pt    0.27848   0.43671   0.53165   0.00000  Uiso   1.00
Co965  Co    0.24684   0.40506   0.40506   0.00000  Uiso   1.00
Co966  Co    0.24684   0.43671   0.50000   0.00000  Uiso   1.00
Co967  Co    0.27848   0.40506   0.50000   0.00000  Uiso   1.00
Co968  Co    0.27848   0.43671   0.40506   0.00000  Uiso   1.00
Pt969  Pt    0.31013   0.40506   0.46835   0.00000  Uiso   1.00
Pt970  Pt    0.31013   0.40506   0.53165   0.00000  Uiso   1.00
Pt971  Pt    0.31013   0.43671   0.43671   0.00000  Uiso   1.00
Pt972  Pt    0.31013   0.43671   0.56329   0.00000  Uiso   1.00
Pt973  Pt    0.34177   0.40506   0.43671   0.00000  Uiso   1.00
Pt974  Pt    0.34177   0.40506   0.56329   0.00000  Uiso   1.00
Pt975  Pt    0.34177   0.43671   0.46835   0.00000  Uiso   1.00
Pt976  Pt    0.34177   0.43671   0.53165   0.00000  Uiso   1.00
Co977  Co    0.31013   0.40506   0.40506   0.00000  Uiso   1.00
Co978  Co    0.31013   0.43671   0.50000   0.00000  Uiso   1.00
Co979  Co    0.34177   0.40506   0.50000   0.00000  Uiso   1.00
Co980  Co    0.34177   0.43671   0.40506   0.00000  Uiso   1.00
Pt981  Pt    0.37342   0.40506   0.46835   0.00000  Uiso   1.00
Pt982  Pt    0.37342   0.40506   0.53165   0.00000  Uiso   1.00
Pt983  Pt    0.37342   0.43671   0.43671   0.00000  Uiso   1.00
Pt984  Pt    0.37342   0.43671   0.56329   0.00000  Uiso   1.00
Pt985  Pt    0.40506   0.40506   0.43671   0.00000  Uiso   1.00
Pt986  Pt    0.40506   0.40506   0.56329   0.00000  Uiso   1.00
Pt987  Pt    0.40506   0.43671   0.46835   0.00000  Uiso   1.00
Pt988  Pt    0.40506   0.43671   0.53165   0.00000  Uiso   1.00
Co989  Co    0.37342   0.40506   0.40506   0.00000  Uiso   1.00
Co990  Co    0.37342   0.43671   0.50000   0.00000  Uiso   1.00
Co991  Co    0.40506   0.40506   0.50000   0.00000  Uiso   1.00
Co992  Co    0.40506   0.43671   0.40506   0.00000  Uiso   1.00
Pt993  Pt    0.43671   0.40506   0.46835   0.00000  Uiso   1.00
Pt994  Pt    0.43671   0.40506   0.53165   0.00000  Uiso   1.00
Pt995  Pt    0.43671   0.43671   0.43671   0.00000  Uiso   1.00
Pt996  Pt    0.43671   0.43671   0.56329   0.00000  Uiso   1.00
Pt997  Pt    0.46835   0.40506   0.43671   0.00000  Uiso   1.00
Pt998  Pt    0.46835   0.40506   0.56329   0.00000  Uiso   1.00
Pt999  Pt    0.46835   0.43671   0.46835   0.00000  Uiso   1.00
Pt1000 Pt    0.46835   0.43671   0.53165   0.00000  Uiso   1.00
Co1001 Co    0.43671   0.40506   0.40506   0.00000  Uiso   1.00
Co1002 Co    0.43671   0.43671   0.50000   0.00000  Uiso   1.00
Co1003 Co    0.46835   0.40506   0.50000   0.00000  Uiso   1.00
Co1004 Co    0.46835   0.43671   0.40506   0.00000  Uiso   1.00
Pt1005 Pt    0.50000   0.40506   0.46835   0.00000  Uiso   1.00
Pt1006 Pt    0.50000   0.40506   0.53165   0.00000  Uiso   1.00
Pt1007 Pt    0.50000   0.43671   0.43671   0.00000  Uiso   1.00
Pt1008 Pt    0.50000   0.43671   0.56329   0.00000  Uiso   1.00
Pt1009 Pt    0.53165   0.40506   0.43671   0.00000  Uiso   1.00
Pt1010 Pt    0.53165   0.40506   0.56329   0.00000  Uiso   1.00
Pt1011 Pt    0.53165   0.43671   0.46835   0.00000  Uiso   1.00
Pt1012 Pt    0.53165   0.43671   0.53165   0.00000  Uiso   1.00
Co1013 Co    0.50000   0.40506   0.40506   0.00000  Uiso   1.00
Co1014 Co    0.50000   0.43671   0.50000   0.00000  Uiso   1.00
Co1015 Co    0.53165   0.40506   0.50000   0.00000  Uiso   1.00
Co1016 Co    0.53165   0.43671   0.40506   0.00000  Uiso   1.00
Pt1017 Pt    0.56329   0.40506   0.46835   0.00000  Uiso   1.00
Pt1018 Pt    0.56329   0.40506   0.53165   0.00000  Uiso   1.00
Pt1019 Pt    0.56329   0.43671   0.43671   0.00000  Uiso   1.00
Pt1020 Pt    0.56329   0.43671   0.56329   0.00000  Uiso   1.00
Pt1021 Pt    0.59494   0.40506   0.43671   0.00000  Uiso   1.00
Pt1022 Pt    0.59494   0.40506   0.56329   0.00000  Uiso   1.00
Pt1023 Pt    0.59494   0.43671   0.46835   0.00000  Uiso   1.00
Pt1024 Pt    0.59494   0.43671   0.53165   0.00000  Uiso   1.00
Co1025 Co    0.56329   0.40506   0.40506   0.00000  Uiso   1.00
Co1026 Co    0.56329   0.43671   0.50000   0.00000  Uiso   1.00
Co1027 Co    0.59494   0.40506   0.50000   0.00000  Uiso   1.00
Co1028 Co    0.59494   0.43671   0.40506   0.00000  Uiso   1.00
Pt1029 Pt    0.62658   0.40506   0.46835   0.00000  Uiso   1.00
Pt1030 Pt    0.62658   0.40506   0.53165   0.00000  Uiso   1.00
Pt1031 Pt    0.62658   0.43671   0.43671   0.00000  Uiso   1.00
Pt1032 Pt    0.62658   0.43671   0.56329   0.00000  Uiso   1.00
Pt1033 Pt    0.65823   0.40506   0.43671   0.00000  Uiso   1.00
Pt1034 Pt    0.65823   0.40506   0.56329   0.00000  Uiso   1.00
Pt1035 Pt    0.65823   0.43671   0.46835   0.00000  Uiso   1.00
Pt1036 Pt    0.65823   0.43671   0.53165   0.00000  Uiso   1.00
Co1037 Co    0.62658   0.40506   0.40506   0.00000  Uiso   1.00
Co1038 Co    0.62658   0.43671   0.50000   0.00000  Uiso   1.00
Co1039 Co    0.65823   0.40506   0.50000   0.00000  Uiso   1.00
Co1040 Co    0.65823   0.43671   0.40506   0.00000  Uiso   1.00
Pt1041 Pt    0.68987   0.40506   0.46835   0.00000  Uiso   1.00
Pt1042 Pt    0.68987   0.40506   0.53165   0.00000  Uiso   1.00
Pt1043 Pt    0.68987   0.43671   0.43671   0.00000  Uiso   1.00
Pt1044 Pt    0.68987   0.43671   0.56329   0.00000  Uiso   1.00
Pt1045 Pt    0.72152   0.40506   0.43671   0.00000  Uiso   1.00
Pt1046 Pt    0.72152   0.40506   0.56329   0.00000  Uiso   1.00
Pt1047 Pt    0.72152   0.43671   0.46835   0.00000  Uiso   1.00
Pt1048 Pt    0.72152   0.43671   0.53165   0.00000  Uiso   1.00
Co1049 Co    0.68987   0.40506   0.40506   0.00000  Uiso   1.00
Co1050 Co    0.68987   0.43671   0.50000   0.00000  Uiso   1.00
Co1051 Co    0.72152   0.40506   0.50000   0.00000  Uiso   1.00
Co1052 Co    0.72152   0.43671   0.40506   0.00000  Uiso   1.00
Pt1053 Pt    0.75316   0.40506   0.46835   0.00000  Uiso   1.00
Pt1054 Pt    0.75316   0.40506   0.53165   0.00000  Uiso   1.00
Pt1055 Pt    0.75316   0.43671   0.43671   0.00000  Uiso   1.00
Pt1056 Pt    0.75316   0.43671   0.56329   0.00000  Uiso   1.00
Pt1057 Pt    0.78481   0.40506   0.43671   0.00000  Uiso   1.00
Pt1058 Pt    0.78481   0.40506   0.56329   0.00000  Uiso   1.00
Pt1059 Pt    0.78481   0.43671   0.46835   0.00000  Uiso   1.00
Pt1060 Pt    0.78481   0.43671   0.53165   0.00000  Uiso   1.00
Co1061 Co    0.75316   0.40506   0.40506   0.00000  Uiso   1.00
Co1062 Co    0.75316   0.43671   0.50000   0.00000  Uiso   1.00
Co1063 Co    0.78481   0.40506   0.50000   0.00000  Uiso   1.00
Co1064 Co    0.78481   0.43671   0.40506   0.00000  Uiso   1.00
Pt1065 Pt    0.81645   0.40506   0.46835   0.00000  Uiso   1.00
Pt1066 Pt    0.81645   0.40506   0.53165   0.00000  Uiso   1.00
Pt1067 Pt    0.81645   0.43671   0.43671   0.00000  Uiso   1.00
Pt1068 Pt    0.81645   0.43671   0.56329   0.00000  Uiso   1.00
Co1069 Co    0.81645   0.43671   0.50000   0.00000  Uiso   1.00
Pt1070 Pt    0.18355   0.46835   0.46835   0.00000  Uiso   1.00
Pt1071 Pt    0.18355   0.46835   0.53165   0.00000  Uiso   1.00
Pt1072 Pt    0.18355   0.50000   0.43671   0.00000  Uiso   1.00
Pt1073 Pt    0.18355   0.50000   0.56329   0.00000  Uiso   1.00
Pt1074 Pt    0.21519   0.46835   0.43671   0.00000  Uiso   1.00
Pt1075 Pt    0.21519   0.46835   0.56329   0.00000  Uiso   1.00
Pt1076 Pt    0.21519   0.50000   0.46835   0.00000  Uiso   1.00
Pt1077 Pt    0.21519   0.50000   0.53165   0.00000  Uiso   1.00
Co1078 Co    0.18355   0.46835   0.40506   0.00000  Uiso   1.00
Co1079 Co    0.18355   0.50000   0.50000   0.00000  Uiso   1.00
Co1080 Co    0.21519   0.46835   0.50000   0.00000  Uiso   1.00
Co1081 Co    0.21519   0.50000   0.40506   0.00000  Uiso   1.00
Pt1082 Pt    0.24684   0.46835   0.46835   0.00000  Uiso   1.00
Pt1083 Pt    0.24684   0.46835   0.53165   0.00000  Uiso   1.00
Pt1084 Pt    0.24684   0.50000   0.43671   0.00000  Uiso   1.00
Pt1085 Pt    0.24684   0.50000   0.56329   0.00000  Uiso   1.00
Pt1086 Pt    0.27848   0.46835   0.43671   0.00000  Uiso   1.00
Pt1087 Pt    0.27848   0.46835   0.56329   0.00000  Uiso   1.00
Pt1088 Pt    0.27848   0.50000   0.46835   0.00000  Uiso   1.00
Pt1089 Pt    0.27848   0.50000   0.53165   0.00000  Uiso   1.00
Co1090 Co    0.24684   0.46835   0.40506   0.00000  Uiso   1.00
Co1091 Co    0.24684   0.50000   0.50000   0.00000  Uiso   1.00
Co1092 Co    0.27848   0.46835   0.50000   0.00000  Uiso   1.00
Co1093 Co    0.27848   0.50000   0.40506   0.00000  Uiso   1.00
Pt1094 Pt    0.31013   0.46835   0.46835   0.00000  Uiso   1.00
Pt1095 Pt    0.31013   0.46835   0.53165   0.00000  Uiso   1.00
Pt1096 Pt    0.31013   0.50000   0.43671   0.00000  Uiso   1.00
Pt1097 Pt    0.31013   0.50000   0.56329   0.00000  Uiso   1.00
Pt1098 Pt    0.34177   0.46835   0.43671   0.00000  Uiso   1.00
Pt1099 Pt    0.34177   0.46835   0.56329   0.00000  Uiso   1.00
Pt1100 Pt    0.34177   0.50000   0.46835   0.00000  Uiso   1.00
Pt1101 Pt    0.34177   0.50000   0.53165   0.00000  Uiso   1.00
Co1102 Co    0.31013   0.46835   0.40506   0.00000  Uiso   1.00
Co1103 Co    0.31013   0.50000   0.50000   0.00000  Uiso   1.00
Co1104 Co    0.34177   0.46835   0.50000   0.00000  Uiso   1.00
Co1105 Co    0.34177   0.50000   0.40506   0.00000  Uiso   1.00
Pt1106 Pt    0.37342   0.46835   0.46835   0.00000  Uiso   1.00
Pt1107 Pt    0.37342   0.46835   0.53165   0.00000  Uiso   1.00
Pt1108 Pt    0.37342   0.50000   0.43671   0.00000  Uiso   1.00
Pt1109 Pt    0.37342   0.50000   0.56329   0.00000  Uiso   1.00
Pt1110 Pt    0.40506   0.46835   0.43671   0.00000  Uiso   1.00
Pt1111 Pt    0.40506   0.46835   0.56329   0.00000  Uiso   1.00
Pt1112 Pt    0.40506   0.50000   0.46835   0.00000  Uiso   1.00
Pt1113 Pt    0.40506   0.50000   0.53165   0.00000  Uiso   1.00
Co1114 Co    0.37342   0.46835   0.40506   0.00000  Uiso   1.00
Co1115 Co    0.37342   0.50000   0.50000   0.00000  Uiso   1.00
Co1116 Co    0.40506   0.46835   0.50000   0.00000  Uiso   1.00
Co1117 Co    0.40506   0.50000   0.40506   0.00000  Uiso   1.00
Pt1118 Pt    0.43671   0.46835   0.46835   0.00000  Uiso   1.00
Pt1119 Pt    0.43671   0.46835   0.53165   0.00000  Uiso   1.00
Pt1120 Pt    0.43671   0.50000   0.43671   0.00000  Uiso   1.00
Pt1121 Pt    0.43671   0.50000   0.56329   0.00000  Uiso   1.00
Pt1122 Pt    0.46835   0.46835   0.43671   0.00000  Uiso   1.00
Pt1123 Pt    0.46835   0.46835   0.56329   0.00000  Uiso   1.00
Pt1124 Pt    0.46835   0.50000   0.46835   0.00000  Uiso   1.00
Pt1125 Pt    0.46835   0.50000   0.53165   0.00000  Uiso   1.00
Co1126 Co    0.43671   0.46835   0.40506   0.00000  Uiso   1.00
Co1127 Co    0.43671   0.50000   0.50000   0.00000  Uiso   1.00
Co1128 Co    0.46835   0.46835   0.50000   0.00000  Uiso   1.00
Co1129 Co    0.46835   0.50000   0.40506   0.00000  Uiso   1.00
Pt1130 Pt    0.50000   0.46835   0.46835   0.00000  Uiso   1.00
Pt1131 Pt    0.50000   0.46835   0.53165   0.00000  Uiso   1.00
Pt1132 Pt    0.50000   0.50000   0.43671   0.00000  Uiso   1.00
Pt1133 Pt    0.50000   0.50000   0.56329   0.00000  Uiso   1.00
Pt1134 Pt    0.53165   0.46835   0.43671   0.00000  Uiso   1.00
Pt1135 Pt    0.53165   0.46835   0.56329   0.00000  Uiso   1.00
Pt1136 Pt    0.53165   0.50000   0.46835   0.00000  Uiso   1.00
Pt1137 Pt    0.53165   0.50000   0.53165   0.00000  Uiso   1.00
Co1138 Co    0.50000   0.46835   0.40506   0.00000  Uiso   1.00
Co1139 Co    0.50000   0.50000   0.50000   0.00000  Uiso   1.00
Co1140 Co    0.53165   0.46835   0.50000   0.00000  Uiso   1.00
Co1141 Co    0.53165   0.50000   0.40506   0.00000  Uiso   1.00
Pt1142 Pt    0.56329   0.46835   0.46835   0.00000  Uiso   1.00
Pt1143 Pt    0.56329   0.46835   0.53165   0.00000  Uiso   1.00
Pt1144 Pt    0.56329   0.50000   0.43671   0.00000  Uiso   1.00
Pt1145 Pt    0.56329   0.50000   0.56329   0.00000  Uiso   1.00
Pt1146 Pt    0.59494   0.46835   0.43671   0.00000  Uiso   1.00
Pt1147 Pt    0.59494   0.46835   0.56329   0.00000  Uiso   1.00
Pt1148 Pt    0.59494   0.50000   0.46835   0.00000  Uiso   1.00
Pt1149 Pt    0.59494   0.50000   0.53165   0.00000  Uiso   1.00
Co1150 Co    0.56329   0.46835   0.40506   0.00000  Uiso   1.00
Co1151 Co    0.56329   0.50000   0.50000   0.00000  Uiso   1.00
Co1152 Co    0.59494   0.46835   0.50000   0.00000  Uiso   1.00
Co1153 Co    0.59494   0.50000   0.40506   0.00000  Uiso   1.00
Pt1154 Pt    0.62658   0.46835   0.46835   0.00000  Uiso   1.00
Pt1155 Pt    0.62658   0.46835   0.53165   0.00000  Uiso   1.00
Pt1156 Pt    0.62658   0.50000   0.43671   0.00000  Uiso   1.00
Pt1157 Pt    0.62658   0.50000   0.56329   0.00000  Uiso   1.00
Pt1158 Pt    0.65823   0.46835   0.43671   0.00000  Uiso   1.00
Pt1159 Pt    0.65823   0.46835   0.56329   0.00000  Uiso   1.00
Pt1160 Pt    0.65823   0.50000   0.46835   0.00000  Uiso   1.00
Pt1161 Pt    0.65823   0.50000   0.53165   0.00000  Uiso   1.00
Co1162 Co    0.62658   0.46835   0.40506   0.00000  Uiso   1.00
Co1163 Co    0.62658   0.50000   0.50000   0.00000  Uiso   1.00
Co1164 Co    0.65823   0.46835   0.50000   0.00000  Uiso   1.00
Co1165 Co    0.65823   0.50000   0.40506   0.00000  Uiso   1.00
Pt1166 Pt    0.68987   0.46835   0.46835   0.00000  Uiso   1.00
Pt1167 Pt    0.68987   0.46835   0.53165   0.00000  Uiso   1.00
Pt1168 Pt    0.68987   0.50000   0.43671   0.00000  Uiso   1.00
Pt1169 Pt    0.68987   0.50000   0.56329   0.00000  Uiso   1.00
Pt1170 Pt    0.72152   0.46835   0.43671   0.00000  Uiso   1.00
Pt1171 Pt    0.72152   0.46835   0.56329   0.00000  Uiso   1.00
Pt1172 Pt    0.72152   0.50000   0.46835   0.00000  Uiso   1.00
Pt1173 Pt    0.72152   0.50000   0.53165   0.00000  Uiso   1.00
Co1174 Co    0.68987   0.46835   0.40506   0.00000  Uiso   1.00
Co1175 Co    0.68987   0.50000   0.50000   0.00000  Uiso   1.00
Co1176 Co    0.72152   0.46835   0.50000   0.00000  Uiso   1.00
Co1177 Co    0.72152   0.50000   0.40506   0.00000  Uiso   1.00
Pt1178 Pt    0.75316   0.46835   0.46835   0.00000  Uiso   1.00
Pt1179 Pt    0.75316   0.46835   0.53165   0.00000  Uiso   1.00
Pt1180 Pt    0.75316   0.50000   0.43671   0.00000  Uiso   1.00
Pt1181 Pt    0.75316   0.50000   0.56329   0.00000  Uiso   1.00
Pt1182 Pt    0.78481   0.46835   0.43671   0.00000  Uiso   1.00
Pt1183 Pt    0.78481   0.46835   0.56329   0.00000  Uiso   1.00
Pt1184 Pt    0.78481   0.50000   0.46835   0.00000  Uiso   1.00
Pt1185 Pt    0.78481   0.50000   0.53165   0.00000  Uiso   1.00
Co1186 Co    0.75316   0.46835   0.40506   0.00000  Uiso   1.00
Co1187 Co    0.75316   0.50000   0.50000   0.00000  Uiso   1.00
Co1188 Co    0.78481   0.46835   0.50000   0.00000  Uiso   1.00
Co1189 Co    0.78481   0.50000   0.40506   0.00000  Uiso   1.00
Pt1190 Pt    0.81645   0.46835   0.46835   0.00000  Uiso   1.00
Pt1191 Pt    0.81645   0.46835   0.53165   0.00000  Uiso   1.00
Pt1192 Pt    0.81645   0.50000   0.43671   0.00000  Uiso   1.00
Pt1193 Pt    0.81645   0.50000   0.56329   0.00000  Uiso   1.00
Co1194 Co    0.81645   0.46835   0.40506   0.00000  Uiso   1.00
Co1195 Co    0.81645   0.50000   0.50000   0.00000  Uiso   1.00
Pt1196 Pt    0.18355   0.53165   0.46835   0.00000  Uiso   1.00
Pt1197 Pt    0.18355   0.53165   0.53165   0.00000  Uiso   1.00
Pt1198 Pt    0.18355   0.56329   0.43671   0.00000  Uiso   1.00
Pt1199 Pt    0.18355   0.56329   0.56329   0.00000  Uiso   1.00
Pt1200 Pt    0.21519   0.53165   0.43671   0.00000  Uiso   1.00
Pt1201 Pt    0.21519   0.53165   0.56329   0.00000  Uiso   1.00
Pt1202 Pt    0.21519   0.56329   0.46835   0.00000  Uiso   1.00
Pt1203 Pt    0.21519   0.56329   0.53165   0.00000  Uiso   1.00
Co1204 Co    0.18355   0.53165   0.40506   0.00000  Uiso   1.00
Co1205 Co    0.18355   0.56329   0.50000   0.00000  Uiso   1.00
Co1206 Co    0.21519   0.53165   0.50000   0.00000  Uiso   1.00
Co1207 Co    0.21519   0.56329   0.40506   0.00000  Uiso   1.00
Pt1208 Pt    0.24684   0.53165   0.46835   0.00000  Uiso   1.00
Pt1209 Pt    0.24684   0.53165   0.53165   0.00000  Uiso   1.00
Pt1210 Pt    0.24684   0.56329   0.43671   0.00000  Uiso   1.00
Pt1211 Pt    0.24684   0.56329   0.56329   0.00000  Uiso   1.00
Pt1212 Pt    0.27848   0.53165   0.43671   0.00000  Uiso   1.00
Pt1213 Pt    0.27848   0.53165   0.56329   0.00000  Uiso   1.00
Pt1214 Pt    0.27848   0.56329   0.46835   0.00000  Uiso   1.00
Pt1215 Pt    0.27848   0.56329   0.53165   0.00000  Uiso   1.00
Co1216 Co    0.24684   0.53165   0.40506   0.00000  Uiso   1.00
Co1217 Co    0.24684   0.56329   0.50000   0.00000  Uiso   1.00
Co1218 Co    0.27848   0.53165   0.50000   0.00000  Uiso   1.00
Co1219 Co    0.27848   0.56329   0.40506   0.00000  Uiso   1.00
Pt1220 Pt    0.31013   0.53165   0.46835   0.00000  Uiso   1.00
Pt1221 Pt    0.31013   0.53165   0.53165   0.00000  Uiso   1.00
Pt1222 Pt    0.31013   0.56329   0.43671   0.00000  Uiso   1.00
Pt1223 Pt    0.31013   0.56329   0.56329   0.00000  Uiso   1.00
Pt1224 Pt    0.34177   0.53165   0.43671   0.00000  Uiso   1.00
Pt1225 Pt    0.34177   0.53165   0.56329   0.00000  Uiso   1.00
Pt1226 Pt    0.34177   0.56329   0.46835   0.00000  Uiso   1.00
Pt1227 Pt    0.34177   0.56329   0.53165   0.00000  Uiso   1.00
Co1228 Co    0.31013   0.53165   0.40506   0.00000  Uiso   1.00
Co1229 Co    0.31013   0.56329   0.50000   0.00000  Uiso   1.00
Co1230 Co    0.34177   0.53165   0.50000   0.00000  Uiso   1.00
Co1231 Co    0.34177   0.56329   0.40506   0.00000  Uiso   1.00
Pt1232 Pt    0.37342   0.53165   0.46835   0.00000  Uiso   1.00
Pt1233 Pt    0.37342   0.53165   0.53165   0.00000  Uiso   1.00
Pt1234 Pt    0.37342   0.56329   0.43671   0.00000  Uiso   1.00
Pt1235 Pt    0.37342   0.56329   0.56329   0.00000  Uiso   1.00
Pt1236 Pt    0.40506   0.53165   0.43671   0.00000  Uiso   1.00
Pt1237 Pt    0.40506   0.53165   0.56329   0.00000  Uiso   1.00
Pt1238 Pt    0.40506   0.56329   0.46835   0.00000  Uiso   1.00
Pt1239 Pt    0.40506   0.56329   0.53165   0.00000  Uiso   1.00
Co1240 Co    0.37342   0.53165   0.40506   0.00000  Uiso   1.00
Co1241 Co    0.37342   0.56329   0.50000   0.00000  Uiso   1.00
Co1242 Co    0.40506   0.53165   0.50000   0.00000  Uiso   1.00
Co1243 Co    0.40506   0.56329   0.40506   0.00000  Uiso   1.00
Pt1244 Pt    0.43671   0.53165   0.46835   0.00000  Uiso   1.00
Pt1245 Pt    0.43671   0.53165   0.53165   0.00000  Uiso   1.00
Pt1246 Pt    0.43671   0.56329   0.43671   0.00000  Uiso   1.00
Pt1247 Pt    0.43671   0.56329   0.56329   0.00000  Uiso   1.00
Pt1248 Pt    0.46835   0.53165   0.43671   0.00000  Uiso   1.00
Pt1249 Pt    0.46835   0.53165   0.56329   0.00000  Uiso   1.00
Pt1250 Pt    0.46835   0.56329   0.46835   0.00000  Uiso   1.00
Pt1251 Pt    0.46835   0.56329   0.53165   0.00000  Uiso   1.00
Co1252 Co    0.43671   0.53165   0.40506   0.00000  Uiso   1.00
Co1253 Co    0.43671   0.56329   0.50000   0.00000  Uiso   1.00
Co1254 Co    0.46835   0.53165   0.50000   0.00000  Uiso   1.00
Co1255 Co    0.46835   0.56329   0.40506   0.00000  Uiso   1.00
Pt1256 Pt    0.50000   0.53165   0.46835   0.00000  Uiso   1.00
Pt1257 Pt    0.50000   0.53165   0.53165   0.00000  Uiso   1.00
Pt1258 Pt    0.50000   0.56329   0.43671   0.00000  Uiso   1.00
Pt1259 Pt    0.50000   0.56329   0.56329   0.00000  Uiso   1.00
Pt1260 Pt    0.53165   0.53165   0.43671   0.00000  Uiso   1.00
Pt1261 Pt    0.53165   0.53165   0.56329   0.00000  Uiso   1.00
Pt1262 Pt    0.53165   0.56329   0.46835   0.00000  Uiso   1.00
Pt1263 Pt    0.53165   0.56329   0.53165   0.00000  Uiso   1.00
Co1264 Co    0.50000   0.53165   0.40506   0.00000  Uiso   1.00
Co1265 Co    0.50000   0.56329   0.50000   0.00000  Uiso   1.00
Co1266 Co    0.53165   0.53165   0.50000   0.00000  Uiso   1.00
Co1267 Co    0.53165   0.56329   0.40506   0.00000  Uiso   1.00
Pt1268 Pt    0.56329   0.53165   0.46835   0.00000  Uiso   1.00
Pt1269 Pt    0.56329   0.53165   0.53165   0.00000  Uiso   1.00
Pt1270 Pt    0.56329   0.56329   0.43671   0.00000  Uiso   1.00
Pt1271 Pt    0.56329   0.56329   0.56329   0.00000  Uiso   1.00
Pt1272 Pt    0.59494   0.53165   0.43671   0.00000  Uiso   1.00
Pt1273 Pt    0.59494   0.53165   0.56329   0.00000  Uiso   1.00
Pt1274 Pt    0.59494   0.56329   0.46835   0.00000  Uiso   1.00
Pt1275 Pt    0.59494   0.56329   0.53165   0.00000  Uiso   1.00
Co1276 Co    0.56329   0.53165   0.40506   0.00000  Uiso   1.00
Co1277 Co    0.56329   0.56329   0.50000   0.00000  Uiso   1.00
Co1278 Co    0.59494   0.53165   0.50000   0.00000  Uiso   1.00
Co1279 Co    0.59494   0.56329   0.40506   0.00000  Uiso   1.00
Pt1280 Pt    0.62658   0.53165   0.46835   0.00000  Uiso   1.00
Pt1281 Pt    0.62658   0.53165   0.53165   0.00000  Uiso   1.00
Pt1282 Pt    0.62658   0.56329   0.43671   0.00000  Uiso   1.00
Pt1283 Pt    0.62658   0.56329   0.56329   0.00000  Uiso   1.00
Pt1284 Pt    0.65823   0.53165   0.43671   0.00000  Uiso   1.00
Pt1285 Pt    0.65823   0.53165   0.56329   0.00000  Uiso   1.00
Pt1286 Pt    0.65823   0.56329   0.46835   0.00000  Uiso   1.00
Pt1287 Pt    0.65823   0.56329   0.53165   0.00000  Uiso   1.00
Co1288 Co    0.62658   0.53165   0.40506   0.00000  Uiso   1.00
Co1289 Co    0.62658   0.56329   0.50000   0.00000  Uiso   1.00
Co1290 Co    0.65823   0.53165   0.50000   0.00000  Uiso   1.00
Co1291 Co    0.65823   0.56329   0.40506   0.00000  Uiso   1.00
Pt1292 Pt    0.68987   0.53165   0.46835   0.00000  Uiso   1.00
Pt1293 Pt    0.68987   0.53165   0.53165   0.00000  Uiso   1.00
Pt1294 Pt    0.68987   0.56329   0.43671   0.00000  Uiso   1.00
Pt1295 Pt    0.68987   0.56329   0.56329   0.00000  Uiso   1.00
Pt1296 Pt    0.72152   0.53165   0.43671   0.00000  Uiso   1.00
Pt1297 Pt    0.72152   0.53165   0.56329   0.00000  Uiso   1.00
Pt1298 Pt    0.72152   0.56329   0.46835   0.00000  Uiso   1.00
Pt1299 Pt    0.72152   0.56329   0.53165   0.00000  Uiso   1.00
Co1300 Co    0.68987   0.53165   0.40506   0.00000  Uiso   1.00
Co1301 Co    0.68987   0.56329   0.50000   0.00000  Uiso   1.00
Co1302 Co    0.72152   0.53165   0.50000   0.00000  Uiso   1.00
Co1303 Co    0.72152   0.56329   0.40506   0.00000  Uiso   1.00
Pt1304 Pt    0.75316   0.53165   0.46835   0.00000  Uiso   1.00
Pt1305 Pt    0.75316   0.53165   0.53165   0.00000  Uiso   1.00
Pt1306 Pt    0.75316   0.56329   0.43671   0.00000  Uiso   1.00
Pt1307 Pt    0.75316   0.56329   0.56329   0.00000  Uiso   1.00
Pt1308 Pt    0.78481   0.53165   0.43671   0.00000  Uiso   1.00
Pt1309 Pt    0.78481   0.53165   0.56329   0.00000  Uiso   1.00
Pt1310 Pt    0.78481   0.56329   0.46835   0.00000  Uiso   1.00
Pt1311 Pt    0.78481   0.56329   0.53165   0.00000  Uiso   1.00
Co1312 Co    0.75316   0.53165   0.40506   0.00000  Uiso   1.00
Co1313 Co    0.75316   0.56329   0.50000   0.00000  Uiso   1.00
Co1314 Co    0.78481   0.53165   0.50000   0.00000  Uiso   1.00
Co1315 Co    0.78481   0.56329   0.40506   0.00000  Uiso   1.00
Pt1316 Pt    0.81645   0.53165   0.46835   0.00000  Uiso   1.00
Pt1317 Pt    0.81645   0.53165   0.53165   0.00000  Uiso   1.00
Pt1318 Pt    0.81645   0.56329   0.43671   0.00000  Uiso   1.00
Pt1319 Pt    0.81645   0.56329   0.56329   0.00000  Uiso   1.00
Co1320 Co    0.81645   0.53165   0.40506   0.00000  Uiso   1.00
Co1321 Co    0.81645   0.56329   0.50000   0.00000  Uiso   1.00
Pt1322 Pt    0.18355   0.59494   0.46835   0.00000  Uiso   1.00
Pt1323 Pt    0.18355   0.59494   0.53165   0.00000  Uiso   1.00
Pt1324 Pt    0.21519   0.59494   0.43671   0.00000  Uiso   1.00
Pt1325 Pt    0.21519   0.59494   0.56329   0.00000  Uiso   1.00
Pt1326 Pt    0.21519   0.62658   0.46835   0.00000  Uiso   1.00
Pt1327 Pt    0.21519   0.62658   0.53165   0.00000  Uiso   1.00
Co1328 Co    0.21519   0.59494   0.50000   0.00000  Uiso   1.00
Co1329 Co    0.21519   0.62658   0.40506   0.00000  Uiso   1.00
Pt1330 Pt    0.24684   0.59494   0.46835   0.00000  Uiso   1.00
Pt1331 Pt    0.24684   0.59494   0.53165   0.00000  Uiso   1.00
Pt1332 Pt    0.24684   0.62658   0.43671   0.00000  Uiso   1.00
Pt1333 Pt    0.24684   0.62658   0.56329   0.00000  Uiso   1.00
Pt1334 Pt    0.27848   0.59494   0.43671   0.00000  Uiso   1.00
Pt1335 Pt    0.27848   0.59494   0.56329   0.00000  Uiso   1.00
Pt1336 Pt    0.27848   0.62658   0.46835   0.00000  Uiso   1.00
Pt1337 Pt    0.27848   0.62658   0.53165   0.00000  Uiso   1.00
Co1338 Co    0.24684   0.59494   0.40506   0.00000  Uiso   1.00
Co1339 Co    0.24684   0.62658   0.50000   0.00000  Uiso   1.00
Co1340 Co    0.27848   0.59494   0.50000   0.00000  Uiso   1.00
Co1341 Co    0.27848   0.62658   0.40506   0.00000  Uiso   1.00
Pt1342 Pt    0.31013   0.59494   0.46835   0.00000  Uiso   1.00
Pt1343 Pt    0.31013   0.59494   0.53165   0.00000  Uiso   1.00
Pt1344 Pt    0.31013   0.62658   0.43671   0.00000  Uiso   1.00
Pt1345 Pt    0.31013   0.62658   0.56329   0.00000  Uiso   1.00
Pt1346 Pt    0.34177   0.59494   0.43671   0.00000  Uiso   1.00
Pt1347 Pt    0.34177   0.59494   0.56329   0.00000  Uiso   1.00
Pt1348 Pt    0.34177   0.62658   0.46835   0.00000  Uiso   1.00
Pt1349 Pt    0.34177   0.62658   0.53165   0.00000  Uiso   1.00
Co1350 Co    0.31013   0.59494   0.40506   0.00000  Uiso   1.00
Co1351 Co    0.31013   0.62658   0.50000   0.00000  Uiso   1.00
Co1352 Co    0.34177   0.59494   0.50000   0.00000  Uiso   1.00
Co1353 Co    0.34177   0.62658   0.40506   0.00000  Uiso   1.00
Pt1354 Pt    0.37342   0.59494   0.46835   0.00000  Uiso   1.00
Pt1355 Pt    0.37342   0.59494   0.53165   0.00000  Uiso   1.00
Pt1356 Pt    0.37342   0.62658   0.43671   0.00000  Uiso   1.00
Pt1357 Pt    0.37342   0.62658   0.56329   0.00000  Uiso   1.00
Pt1358 Pt    0.40506   0.59494   0.43671   0.00000  Uiso   1.00
Pt1359 Pt    0.40506   0.59494   0.56329   0.00000  Uiso   1.00
Pt1360 Pt    0.40506   0.62658   0.46835   0.00000  Uiso   1.00
Pt1361 Pt    0.40506   0.62658   0.53165   0.00000  Uiso   1.00
Co1362 Co    0.37342   0.59494   0.40506   0.00000  Uiso   1.00
Co1363 Co    0.37342   0.62658   0.50000   0.00000  Uiso   1.00
Co1364 Co    0.40506   0.59494   0.50000   0.00000  Uiso   1.00
Co1365 Co    0.40506   0.62658   0.40506   0.00000  Uiso   1.00
Pt1366 Pt    0.43671   0.59494   0.46835   0.00000  Uiso   1.00
Pt1367 Pt    0.43671   0.59494   0.53165   0.00000  Uiso   1.00
Pt1368 Pt    0.43671   0.62658   0.43671   0.00000  Uiso   1.00
Pt1369 Pt    0.43671   0.62658   0.56329   0.00000  Uiso   1.00
Pt1370 Pt    0.46835   0.59494   0.43671   0.00000  Uiso   1.00
Pt1371 Pt    0.46835   0.59494   0.56329   0.00000  Uiso   1.00
Pt1372 Pt    0.46835   0.62658   0.46835   0.00000  Uiso   1.00
Pt1373 Pt    0.46835   0.62658   0.53165   0.00000  Uiso   1.00
Co1374 Co    0.43671   0.59494   0.40506   0.00000  Uiso   1.00
Co1375 Co    0.43671   0.62658   0.50000   0.00000  Uiso   1.00
Co1376 Co    0.46835   0.59494   0.50000   0.00000  Uiso   1.00
Co1377 Co    0.46835   0.62658   0.40506   0.00000  Uiso   1.00
Pt1378 Pt    0.50000   0.59494   0.46835   0.00000  Uiso   1.00
Pt1379 Pt    0.50000   0.59494   0.53165   0.00000  Uiso   1.00
Pt1380 Pt    0.50000   0.62658   0.43671   0.00000  Uiso   1.00
Pt1381 Pt    0.50000   0.62658   0.56329   0.00000  Uiso   1.00
Pt1382 Pt    0.53165   0.59494   0.43671   0.00000  Uiso   1.00
Pt1383 Pt    0.53165   0.59494   0.56329   0.00000  Uiso   1.00
Pt1384 Pt    0.53165   0.62658   0.46835   0.00000  Uiso   1.00
Pt1385 Pt    0.53165   0.62658   0.53165   0.00000  Uiso   1.00
Co1386 Co    0.50000   0.59494   0.40506   0.00000  Uiso   1.00
Co1387 Co    0.50000   0.62658   0.50000   0.00000  Uiso   1.00
Co1388 Co    0.53165   0.59494   0.50000   0.00000  Uiso   1.00
Co1389 Co    0.53165   0.62658   0.40506   0.00000  Uiso   1.00
Pt1390 Pt    0.56329   0.59494   0.46835   0.00000  Uiso   1.00
Pt1391 Pt    0.56329   0.59494   0.53165   0.00000  Uiso   1.00
Pt1392 Pt    0.56329   0.62658   0.43671   0.00000  Uiso   1.00
Pt1393 Pt    0.56329   0.62658   0.56329   0.00000  Uiso   1.00
Pt1394 Pt    0.59494   0.59494   0.43671   0.00000  Uiso   1.00
Pt1395 Pt    0.59494   0.59494   0.56329   0.00000  Uiso   1.00
Pt1396 Pt    0.59494   0.62658   0.46835   0.00000  Uiso   1.00
Pt1397 Pt    0.59494   0.62658   0.53165   0.00000  Uiso   1.00
Co1398 Co    0.56329   0.59494   0.40506   0.00000  Uiso   1.00
Co1399 Co    0.56329   0.62658   0.50000   0.00000  Uiso   1.00
Co1400 Co    0.59494   0.59494   0.50000   0.00000  Uiso   1.00
Co1401 Co    0.59494   0.62658   0.40506   0.00000  Uiso   1.00
Pt1402 Pt    0.62658   0.59494   0.46835   0.00000  Uiso   1.00
Pt1403 Pt    0.62658   0.59494   0.53165   0.00000  Uiso   1.00
Pt1404 Pt    0.62658   0.62658   0.43671   0.00000  Uiso   1.00
Pt1405 Pt    0.62658   0.62658   0.56329   0.00000  Uiso   1.00
Pt1406 Pt    0.65823   0.59494   0.43671   0.00000  Uiso   1.00
Pt1407 Pt    0.65823   0.59494   0.56329   0.00000  Uiso   1.00
Pt1408 Pt    0.65823   0.62658   0.46835   0.00000  Uiso   1.00
Pt1409 Pt    0.65823   0.62658   0.53165   0.00000  Uiso   1.00
Co1410 Co    0.62658   0.59494   0.40506   0.00000  Uiso   1.00
Co1411 Co    0.62658   0.62658   0.50000   0.00000  Uiso   1.00
Co1412 Co    0.65823   0.59494   0.50000   0.00000  Uiso   1.00
Co1413 Co    0.65823   0.62658   0.40506   0.00000  Uiso   1.00
Pt1414 Pt    0.68987   0.59494   0.46835   0.00000  Uiso   1.00
Pt1415 Pt    0.68987   0.59494   0.53165   0.00000  Uiso   1.00
Pt1416 Pt    0.68987   0.62658   0.43671   0.00000  Uiso   1.00
Pt1417 Pt    0.68987   0.62658   0.56329   0.00000  Uiso   1.00
Pt1418 Pt    0.72152   0.59494   0.43671   0.00000  Uiso   1.00
Pt1419 Pt    0.72152   0.59494   0.56329   0.00000  Uiso   1.00
Pt1420 Pt    0.72152   0.62658   0.46835   0.00000  Uiso   1.00
Pt1421 Pt    0.72152   0.62658   0.53165   0.00000  Uiso   1.00
Co1422 Co    0.68987   0.59494   0.40506   0.00000  Uiso   1.00
Co1423 Co    0.68987   0.62658   0.50000   0.00000  Uiso   1.00
Co1424 Co    0.72152   0.59494   0.50000   0.00000  Uiso   1.00
Co1425 Co    0.72152   0.62658   0.40506   0.00000  Uiso   1.00
Pt1426 Pt    0.75316   0.59494   0.46835   0.00000  Uiso   1.00
Pt1427 Pt    0.75316   0.59494   0.53165   0.00000  Uiso   1.00
Pt1428 Pt    0.75316   0.62658   0.43671   0.00000  Uiso   1.00
Pt1429 Pt    0.75316   0.62658   0.56329   0.00000  Uiso   1.00
Pt1430 Pt    0.78481   0.59494   0.43671   0.00000  Uiso   1.00
Pt1431 Pt    0.78481   0.59494   0.56329   0.00000  Uiso   1.00
Pt1432 Pt    0.78481   0.62658   0.46835   0.00000  Uiso   1.00
Pt1433 Pt    0.78481   0.62658   0.53165   0.00000  Uiso   1.00
Co1434 Co    0.75316   0.59494   0.40506   0.00000  Uiso   1.00
Co1435 Co    0.75316   0.62658   0.50000   0.00000  Uiso   1.00
Co1436 Co    0.78481   0.59494   0.50000   0.00000  Uiso   1.00
Co1437 Co    0.78481   0.62658   0.40506   0.00000  Uiso   1.00
Pt1438 Pt    0.81645   0.59494   0.46835   0.00000  Uiso   1.00
Pt1439 Pt    0.81645   0.59494   0.53165   0.00000  Uiso   1.00
Pt1440 Pt    0.21519   0.65823   0.43671   0.00000  Uiso   1.00
Pt1441 Pt    0.21519   0.65823   0.56329   0.00000  Uiso   1.00
Co1442 Co    0.21519   0.65823   0.50000   0.00000  Uiso   1.00
Pt1443 Pt    0.24684   0.65823   0.46835   0.00000  Uiso   1.00
Pt1444 Pt    0.24684   0.65823   0.53165   0.00000  Uiso   1.00
Pt1445 Pt    0.24684   0.68987   0.43671   0.00000  Uiso   1.00
Pt1446 Pt    0.24684   0.68987   0.56329   0.00000  Uiso   1.00
Pt1447 Pt    0.27848   0.65823   0.43671   0.00000  Uiso   1.00
Pt1448 Pt    0.27848   0.65823   0.56329   0.00000  Uiso   1.00
Pt1449 Pt    0.27848   0.68987   0.46835   0.00000  Uiso   1.00
Pt1450 Pt    0.27848   0.68987   0.53165   0.00000  Uiso   1.00
Co1451 Co    0.24684   0.65823   0.40506   0.00000  Uiso   1.00
Co1452 Co    0.24684   0.68987   0.50000   0.00000  Uiso   1.00
Co1453 Co    0.27848   0.65823   0.50000   0.00000  Uiso   1.00
Co1454 Co    0.27848   0.68987   0.40506   0.00000  Uiso   1.00
Pt1455 Pt    0.31013   0.65823   0.46835   0.00000  Uiso   1.00
Pt1456 Pt    0.31013   0.65823   0.53165   0.00000  Uiso   1.00
Pt1457 Pt    0.31013   0.68987   0.43671   0.00000  Uiso   1.00
Pt1458 Pt    0.31013   0.68987   0.56329   0.00000  Uiso   1.00
Pt1459 Pt    0.34177   0.65823   0.43671   0.00000  Uiso   1.00
Pt1460 Pt    0.34177   0.65823   0.56329   0.00000  Uiso   1.00
Pt1461 Pt    0.34177   0.68987   0.46835   0.00000  Uiso   1.00
Pt1462 Pt    0.34177   0.68987   0.53165   0.00000  Uiso   1.00
Co1463 Co    0.31013   0.65823   0.40506   0.00000  Uiso   1.00
Co1464 Co    0.31013   0.68987   0.50000   0.00000  Uiso   1.00
Co1465 Co    0.34177   0.65823   0.50000   0.00000  Uiso   1.00
Co1466 Co    0.34177   0.68987   0.40506   0.00000  Uiso   1.00
Pt1467 Pt    0.37342   0.65823   0.46835   0.00000  Uiso   1.00
Pt1468 Pt    0.37342   0.65823   0.53165   0.00000  Uiso   1.00
Pt1469 Pt    0.37342   0.68987   0.43671   0.00000  Uiso   1.00
Pt1470 Pt    0.37342   0.68987   0.56329   0.00000  Uiso   1.00
Pt1471 Pt    0.40506   0.65823   0.43671   0.00000  Uiso   1.00
Pt1472 Pt    0.40506   0.65823   0.56329   0.00000  Uiso   1.00
Pt1473 Pt    0.40506   0.68987   0.46835   0.00000  Uiso   1.00
Pt1474 Pt    0.40506   0.68987   0.53165   0.00000  Uiso   1.00
Co1475 Co    0.37342   0.65823   0.40506   0.00000  Uiso   1.00
Co1476 Co    0.37342   0.68987   0.50000   0.00000  Uiso   1.00
Co1477 Co    0.40506   0.65823   0.50000   0.00000  Uiso   1.00
Co1478 Co    0.40506   0.68987   0.40506   0.00000  Uiso   1.00
Pt1479 Pt    0.43671   0.65823   0.46835   0.00000  Uiso   1.00
Pt1480 Pt    0.43671   0.65823   0.53165   0.00000  Uiso   1.00
Pt1481 Pt    0.43671   0.68987   0.43671   0.00000  Uiso   1.00
Pt1482 Pt    0.43671   0.68987   0.56329   0.00000  Uiso   1.00
Pt1483 Pt    0.46835   0.65823   0.43671   0.00000  Uiso   1.00
Pt1484 Pt    0.46835   0.65823   0.56329   0.00000  Uiso   1.00
Pt1485 Pt    0.46835   0.68987   0.46835   0.00000  Uiso   1.00
Pt1486 Pt    0.46835   0.68987   0.53165   0.00000  Uiso   1.00
Co1487 Co    0.43671   0.65823   0.40506   0.00000  Uiso   1.00
Co1488 Co    0.43671   0.68987   0.50000   0.00000  Uiso   1.00
Co1489 Co    0.46835   0.65823   0.50000   0.00000  Uiso   1.00
Co1490 Co    0.46835   0.68987   0.40506   0.00000  Uiso   1.00
Pt1491 Pt    0.50000   0.65823   0.46835   0.00000  Uiso   1.00
Pt1492 Pt    0.50000   0.65823   0.53165   0.00000  Uiso   1.00
Pt1493 Pt    0.50000   0.68987   0.43671   0.00000  Uiso   1.00
Pt1494 Pt    0.50000   0.68987   0.56329   0.00000  Uiso   1.00
Pt1495 Pt    0.53165   0.65823   0.43671   0.00000  Uiso   1.00
Pt1496 Pt    0.53165   0.65823   0.56329   0.00000  Uiso   1.00
Pt1497 Pt    0.53165   0.68987   0.46835   0.00000  Uiso   1.00
Pt1498 Pt    0.53165   0.68987   0.53165   0.00000  Uiso   1.00
Co1499 Co    0.50000   0.65823   0.40506   0.00000  Uiso   1.00
Co1500 Co    0.50000   0.68987   0.50000   0.00000  Uiso   1.00
Co1501 Co    0.53165   0.65823   0.50000   0.00000  Uiso   1.00
Co1502 Co    0.53165   0.68987   0.40506   0.00000  Uiso   1.00
Pt1503 Pt    0.56329   0.65823   0.46835   0.00000  Uiso   1.00
Pt1504 Pt    0.56329   0.65823   0.53165   0.00000  Uiso   1.00
Pt1505 Pt    0.56329   0.68987   0.43671   0.00000  Uiso   1.00
Pt1506 Pt    0.56329   0.68987   0.56329   0.00000  Uiso   1.00
Pt1507 Pt    0.59494   0.65823   0.43671   0.00000  Uiso   1.00
Pt1508 Pt    0.59494   0.65823   0.56329   0.00000  Uiso   1.00
Pt1509 Pt    0.59494   0.68987   0.46835   0.00000  Uiso   1.00
Pt1510 Pt    0.59494   0.68987   0.53165   0.00000  Uiso   1.00
Co1511 Co    0.56329   0.65823   0.40506   0.00000  Uiso   1.00
Co1512 Co    0.56329   0.68987   0.50000   0.00000  Uiso   1.00
Co1513 Co    0.59494   0.65823   0.50000   0.00000  Uiso   1.00
Co1514 Co    0.59494   0.68987   0.40506   0.00000  Uiso   1.00
Pt1515 Pt    0.62658   0.65823   0.46835   0.00000  Uiso   1.00
Pt1516 Pt    0.62658   0.65823   0.53165   0.00000  Uiso   1.00
Pt1517 Pt    0.62658   0.68987   0.43671   0.00000  Uiso   1.00
Pt1518 Pt    0.62658   0.68987   0.56329   0.00000  Uiso   1.00
Pt1519 Pt    0.65823   0.65823   0.43671   0.00000  Uiso   1.00
Pt1520 Pt    0.65823   0.65823   0.56329   0.00000  Uiso   1.00
Pt1521 Pt    0.65823   0.68987   0.46835   0.00000  Uiso   1.00
Pt1522 Pt    0.65823   0.68987   0.53165   0.00000  Uiso   1.00
Co1523 Co    0.62658   0.65823   0.40506   0.00000  Uiso   1.00
Co1524 Co    0.62658   0.68987   0.50000   0.00000  Uiso   1.00
Co1525 Co    0.65823   0.65823   0.50000   0.00000  Uiso   1.00
Co1526 Co    0.65823   0.68987   0.40506   0.00000  Uiso   1.00
Pt1527 Pt    0.68987   0.65823   0.46835   0.00000  Uiso   1.00
Pt1528 Pt    0.68987   0.65823   0.53165   0.00000  Uiso   1.00
Pt1529 Pt    0.68987   0.68987   0.43671   0.00000  Uiso   1.00
Pt1530 Pt    0.68987   0.68987   0.56329   0.00000  Uiso   1.00
Pt1531 Pt    0.72152   0.65823   0.43671   0.00000  Uiso   1.00
Pt1532 Pt    0.72152   0.65823   0.56329   0.00000  Uiso   1.00
Pt1533 Pt    0.72152   0.68987   0.46835   0.00000  Uiso   1.00
Pt1534 Pt    0.72152   0.68987   0.53165   0.00000  Uiso   1.00
Co1535 Co    0.68987   0.65823   0.40506   0.00000  Uiso   1.00
Co1536 Co    0.68987   0.68987   0.50000   0.00000  Uiso   1.00
Co1537 Co    0.72152   0.65823   0.50000   0.00000  Uiso   1.00
Co1538 Co    0.72152   0.68987   0.40506   0.00000  Uiso   1.00
Pt1539 Pt    0.75316   0.65823   0.46835   0.00000  Uiso   1.00
Pt1540 Pt    0.75316   0.65823   0.53165   0.00000  Uiso   1.00
Pt1541 Pt    0.75316   0.68987   0.43671   0.00000  Uiso   1.00
Pt1542 Pt    0.75316   0.68987   0.56329   0.00000  Uiso   1.00
Pt1543 Pt    0.78481   0.65823   0.43671   0.00000  Uiso   1.00
Pt1544 Pt    0.78481   0.65823   0.56329   0.00000  Uiso   1.00
Co1545 Co    0.75316   0.65823   0.40506   0.00000  Uiso   1.00
Co1546 Co    0.75316   0.68987   0.50000   0.00000  Uiso   1.00
Co1547 Co    0.78481   0.65823   0.50000   0.00000  Uiso   1.00
Pt1548 Pt    0.27848   0.72152   0.43671   0.00000  Uiso   1.00
Pt1549 Pt    0.27848   0.72152   0.56329   0.00000  Uiso   1.00
Co1550 Co    0.27848   0.72152   0.50000   0.00000  Uiso   1.00
Pt1551 Pt    0.31013   0.72152   0.46835   0.00000  Uiso   1.00
Pt1552 Pt    0.31013   0.72152   0.53165   0.00000  Uiso   1.00
Pt1553 Pt    0.31013   0.75316   0.43671   0.00000  Uiso   1.00
Pt1554 Pt    0.31013   0.75316   0.56329   0.00000  Uiso   1.00
Pt1555 Pt    0.34177   0.72152   0.43671   0.00000  Uiso   1.00
Pt1556 Pt    0.34177   0.72152   0.56329   0.00000  Uiso   1.00
Pt1557 Pt    0.34177   0.75316   0.46835   0.00000  Uiso   1.00
Pt1558 Pt    0.34177   0.75316   0.53165   0.00000  Uiso   1.00
Co1559 Co    0.31013   0.72152   0.40506   0.00000  Uiso   1.00
Co1560 Co    0.31013   0.75316   0.50000   0.00000  Uiso   1.00
Co1561 Co    0.34177   0.72152   0.50000   0.00000  Uiso   1.00
Co1562 Co    0.34177   0.75316   0.40506   0.00000  Uiso   1.00
Pt1563 Pt    0.37342   0.72152   0.46835   0.00000  Uiso   1.00
Pt1564 Pt    0.37342   0.72152   0.53165   0.00000  Uiso   1.00
Pt1565 Pt    0.37342   0.75316   0.43671   0.00000  Uiso   1.00
Pt1566 Pt    0.37342   0.75316   0.56329   0.00000  Uiso   1.00
Pt1567 Pt    0.40506   0.72152   0.43671   0.00000  Uiso   1.00
Pt1568 Pt    0.40506   0.72152   0.56329   0.00000  Uiso   1.00
Pt1569 Pt    0.40506   0.75316   0.46835   0.00000  Uiso   1.00
Pt1570 Pt    0.40506   0.75316   0.53165   0.00000  Uiso   1.00
Co1571 Co    0.37342   0.72152   0.40506   0.00000  Uiso   1.00
Co1572 Co    0.37342   0.75316   0.50000   0.00000  Uiso   1.00
Co1573 Co    0.40506   0.72152   0.50000   0.00000  Uiso   1.00
Co1574 Co    0.40506   0.75316   0.40506   0.00000  Uiso   1.00
Pt1575 Pt    0.43671   0.72152   0.46835   0.00000  Uiso   1.00
Pt1576 Pt    0.43671   0.72152   0.53165   0.00000  Uiso   1.00
Pt1577 Pt    0.43671   0.75316   0.43671   0.00000  Uiso   1.00
Pt1578 Pt    0.43671   0.75316   0.56329   0.00000  Uiso   1.00
Pt1579 Pt    0.46835   0.72152   0.43671   0.00000  Uiso   1.00
Pt1580 Pt    0.46835   0.72152   0.56329   0.00000  Uiso   1.00
Pt1581 Pt    0.46835   0.75316   0.46835   0.00000  Uiso   1.00
Pt1582 Pt    0.46835   0.75316   0.53165   0.00000  Uiso   1.00
Co1583 Co    0.43671   0.72152   0.40506   0.00000  Uiso   1.00
Co1584 Co    0.43671   0.75316   0.50000   0.00000  Uiso   1.00
Co1585 Co    0.46835   0.72152   0.50000   0.00000  Uiso   1.00
Co1586 Co    0.46835   0.75316   0.40506   0.00000  Uiso   1.00
Pt1587 Pt    0.50000   0.72152   0.46835   0.00000  Uiso   1.00
Pt1588 Pt    0.50000   0.72152   0.53165   0.00000  Uiso   1.00
Pt1589 Pt    0.50000   0.75316   0.43671   0.00000  Uiso   1.00
Pt1590 Pt    0.50000   0.75316   0.56329   0.00000  Uiso   1.00
Pt1591 Pt    0.53165   0.72152   0.43671   0.00000  Uiso   1.00
Pt1592 Pt    0.53165   0.72152   0.56329   0.00000  Uiso   1.00
Pt1593 Pt    0.53165   0.75316   0.46835   0.00000  Uiso   1.00
Pt1594 Pt    0.53165   0.75316   0.53165   0.00000  Uiso   1.00
Co1595 Co    0.50000   0.72152   0.40506   0.00000  Uiso   1.00
Co1596 Co    0.50000   0.75316   0.50000   0.00000  Uiso   1.00
Co1597 Co    0.53165   0.72152   0.50000   0.00000  Uiso   1.00
Co1598 Co    0.53165   0.75316   0.40506   0.00000  Uiso   1.00
Pt1599 Pt    0.56329   0.72152   0.46835   0.00000  Uiso   1.00
Pt1600 Pt    0.56329   0.72152   0.53165   0.00000  Uiso   1.00
Pt1601 Pt    0.56329   0.75316   0.43671   0.00000  Uiso   1.00
Pt1602 Pt    0.56329   0.75316   0.56329   0.00000  Uiso   1.00
Pt1603 Pt    0.59494   0.72152   0.43671   0.00000  Uiso   1.00
Pt1604 Pt    0.59494   0.72152   0.56329   0.00000  Uiso   1.00
Pt1605 Pt    0.59494   0.75316   0.46835   0.00000  Uiso   1.00
Pt1606 Pt    0.59494   0.75316   0.53165   0.00000  Uiso   1.00
Co1607 Co    0.56329   0.72152   0.40506   0.00000  Uiso   1.00
Co1608 Co    0.56329   0.75316   0.50000   0.00000  Uiso   1.00
Co1609 Co    0.59494   0.72152   0.50000   0.00000  Uiso   1.00
Co1610 Co    0.59494   0.75316   0.40506   0.00000  Uiso   1.00
Pt1611 Pt    0.62658   0.72152   0.46835   0.00000  Uiso   1.00
Pt1612 Pt    0.62658   0.72152   0.53165   0.00000  Uiso   1.00
Pt1613 Pt    0.62658   0.75316   0.43671   0.00000  Uiso   1.00
Pt1614 Pt    0.62658   0.75316   0.56329   0.00000  Uiso   1.00
Pt1615 Pt    0.65823   0.72152   0.43671   0.00000  Uiso   1.00
Pt1616 Pt    0.65823   0.72152   0.56329   0.00000  Uiso   1.00
Pt1617 Pt    0.65823   0.75316   0.46835   0.00000  Uiso   1.00
Pt1618 Pt    0.65823   0.75316   0.53165   0.00000  Uiso   1.00
Co1619 Co    0.62658   0.72152   0.40506   0.00000  Uiso   1.00
Co1620 Co    0.62658   0.75316   0.50000   0.00000  Uiso   1.00
Co1621 Co    0.65823   0.72152   0.50000   0.00000  Uiso   1.00
Co1622 Co    0.65823   0.75316   0.40506   0.00000  Uiso   1.00
Pt1623 Pt    0.68987   0.72152   0.46835   0.00000  Uiso   1.00
Pt1624 Pt    0.68987   0.72152   0.53165   0.00000  Uiso   1.00
Pt1625 Pt    0.68987   0.75316   0.43671   0.00000  Uiso   1.00
Pt1626 Pt    0.68987   0.75316   0.56329   0.00000  Uiso   1.00
Pt1627 Pt    0.72152   0.72152   0.43671   0.00000  Uiso   1.00
Pt1628 Pt    0.72152   0.72152   0.56329   0.00000  Uiso   1.00
Co1629 Co    0.68987   0.72152   0.40506   0.00000  Uiso   1.00
Co1630 Co    0.68987   0.75316   0.50000   0.00000  Uiso   1.00
Co1631 Co    0.72152   0.72152   0.50000   0.00000  Uiso   1.00
Pt1632 Pt    0.34177   0.78481   0.43671   0.00000  Uiso   1.00
Pt1633 Pt    0.34177   0.78481   0.56329   0.00000  Uiso   1.00
Co1634 Co    0.34177   0.78481   0.50000   0.00000  Uiso   1.00
Pt1635 Pt    0.37342   0.78481   0.46835   0.00000  Uiso   1.00
Pt1636 Pt    0.37342   0.78481   0.53165   0.00000  Uiso   1.00
Pt1637 Pt    0.40506   0.78481   0.43671   0.00000  Uiso   1.00
Pt1638 Pt    0.40506   0.78481   0.56329   0.00000  Uiso   1.00
Pt1639 Pt    0.40506   0.81645   0.46835   0.00000  Uiso   1.00
Pt1640 Pt    0.40506   0.81645   0.53165   0.00000  Uiso   1.00
Co1641 Co    0.37342   0.78481   0.40506   0.00000  Uiso   1.00
Co1642 Co    0.40506   0.78481   0.50000   0.00000  Uiso   1.00
Pt1643 Pt    0.43671   0.78481   0.46835   0.00000  Uiso   1.00
Pt1644 Pt    0.43671   0.78481   0.53165   0.00000  Uiso   1.00
Pt1645 Pt    0.43671   0.81645   0.43671   0.00000  Uiso   1.00
Pt1646 Pt    0.43671   0.81645   0.56329   0.00000  Uiso   1.00
Pt1647 Pt    0.46835   0.78481   0.43671   0.00000  Uiso   1.00
Pt1648 Pt    0.46835   0.78481   0.56329   0.00000  Uiso   1.00
Pt1649 Pt    0.46835   0.81645   0.46835   0.00000  Uiso   1.00
Pt1650 Pt    0.46835   0.81645   0.53165   0.00000  Uiso   1.00
Co1651 Co    0.43671   0.78481   0.40506   0.00000  Uiso   1.00
Co1652 Co    0.43671   0.81645   0.50000   0.00000  Uiso   1.00
Co1653 Co    0.46835   0.78481   0.50000   0.00000  Uiso   1.00
Co1654 Co    0.46835   0.81645   0.40506   0.00000  Uiso   1.00
Pt1655 Pt    0.50000   0.78481   0.46835   0.00000  Uiso   1.00
Pt1656 Pt    0.50000   0.78481   0.53165   0.00000  Uiso   1.00
Pt1657 Pt    0.50000   0.81645   0.43671   0.00000  Uiso   1.00
Pt1658 Pt    0.50000   0.81645   0.56329   0.00000  Uiso   1.00
Pt1659 Pt    0.53165   0.78481   0.43671   0.00000  Uiso   1.00
Pt1660 Pt    0.53165   0.78481   0.56329   0.00000  Uiso   1.00
Pt1661 Pt    0.53165   0.81645   0.46835   0.00000  Uiso   1.00
Pt1662 Pt    0.53165   0.81645   0.53165   0.00000  Uiso   1.00
Co1663 Co    0.50000   0.78481   0.40506   0.00000  Uiso   1.00
Co1664 Co    0.50000   0.81645   0.50000   0.00000  Uiso   1.00
Co1665 Co    0.53165   0.78481   0.50000   0.00000  Uiso   1.00
Co1666 Co    0.53165   0.81645   0.40506   0.00000  Uiso   1.00
Pt1667 Pt    0.56329   0.78481   0.46835   0.00000  Uiso   1.00
Pt1668 Pt    0.56329   0.78481   0.53165   0.00000  Uiso   1.00
Pt1669 Pt    0.56329   0.81645   0.43671   0.00000  Uiso   1.00
Pt1670 Pt    0.56329   0.81645   0.56329   0.00000  Uiso   1.00
Pt1671 Pt    0.59494   0.78481   0.43671   0.00000  Uiso   1.00
Pt1672 Pt    0.59494   0.78481   0.56329   0.00000  Uiso   1.00
Pt1673 Pt    0.59494   0.81645   0.46835   0.00000  Uiso   1.00
Pt1674 Pt    0.59494   0.81645   0.53165   0.00000  Uiso   1.00
Co1675 Co    0.56329   0.78481   0.40506   0.00000  Uiso   1.00
Co1676 Co    0.56329   0.81645   0.50000   0.00000  Uiso   1.00
Co1677 Co    0.59494   0.78481   0.50000   0.00000  Uiso   1.00
Pt1678 Pt    0.62658   0.78481   0.46835   0.00000  Uiso   1.00
Pt1679 Pt    0.62658   0.78481   0.53165   0.00000  Uiso   1.00
Pt1680 Pt    0.65823   0.78481   0.43671   0.00000  Uiso   1.00
Pt1681 Pt    0.65823   0.78481   0.56329   0.00000  Uiso   1.00
Co1682 Co    0.62658   0.78481   0.40506   0.00000  Uiso   1.00
Co1683 Co    0.65823   0.78481   0.50000   0.00000  Uiso   1.00
Co1684 Co    0.46835   0.18355   0.59494   0.00000  Uiso   1.00
Co1685 Co    0.53165   0.18355   0.59494   0.00000  Uiso   1.00
Co1686 Co    0.34177   0.24684   0.59494   0.00000  Uiso   1.00
Pt1687 Pt    0.37342   0.24684   0.62658   0.00000  Uiso   1.00
Pt1688 Pt    0.40506   0.21519   0.62658   0.00000  Uiso   1.00
Pt1689 Pt    0.40506   0.24684   0.65823   0.00000  Uiso   1.00
Co1690 Co    0.37342   0.21519   0.59494   0.00000  Uiso   1.00
Co1691 Co    0.40506   0.24684   0.59494   0.00000  Uiso   1.00
Pt1692 Pt    0.43671   0.21519   0.65823   0.00000  Uiso   1.00
Pt1693 Pt    0.43671   0.24684   0.62658   0.00000  Uiso   1.00
Pt1694 Pt    0.46835   0.21519   0.62658   0.00000  Uiso   1.00
Pt1695 Pt    0.46835   0.24684   0.65823   0.00000  Uiso   1.00
Co1696 Co    0.43671   0.21519   0.59494   0.00000  Uiso   1.00
Co1697 Co    0.43671   0.24684   0.68987   0.00000  Uiso   1.00
Co1698 Co    0.46835   0.24684   0.59494   0.00000  Uiso   1.00
Pt1699 Pt    0.50000   0.21519   0.65823   0.00000  Uiso   1.00
Pt1700 Pt    0.50000   0.24684   0.62658   0.00000  Uiso   1.00
Pt1701 Pt    0.53165   0.21519   0.62658   0.00000  Uiso   1.00
Pt1702 Pt    0.53165   0.24684   0.65823   0.00000  Uiso   1.00
Co1703 Co    0.50000   0.21519   0.59494   0.00000  Uiso   1.00
Co1704 Co    0.50000   0.24684   0.68987   0.00000  Uiso   1.00
Co1705 Co    0.53165   0.24684   0.59494   0.00000  Uiso   1.00
Pt1706 Pt    0.56329   0.21519   0.65823   0.00000  Uiso   1.00
Pt1707 Pt    0.56329   0.24684   0.62658   0.00000  Uiso   1.00
Pt1708 Pt    0.59494   0.21519   0.62658   0.00000  Uiso   1.00
Pt1709 Pt    0.59494   0.24684   0.65823   0.00000  Uiso   1.00
Co1710 Co    0.56329   0.21519   0.59494   0.00000  Uiso   1.00
Co1711 Co    0.56329   0.24684   0.68987   0.00000  Uiso   1.00
Co1712 Co    0.59494   0.24684   0.59494   0.00000  Uiso   1.00
Pt1713 Pt    0.62658   0.24684   0.62658   0.00000  Uiso   1.00
Co1714 Co    0.62658   0.21519   0.59494   0.00000  Uiso   1.00
Co1715 Co    0.65823   0.24684   0.59494   0.00000  Uiso   1.00
Pt1716 Pt    0.27848   0.31013   0.65823   0.00000  Uiso   1.00
Co1717 Co    0.27848   0.31013   0.59494   0.00000  Uiso   1.00
Pt1718 Pt    0.31013   0.27848   0.65823   0.00000  Uiso   1.00
Pt1719 Pt    0.31013   0.31013   0.62658   0.00000  Uiso   1.00
Pt1720 Pt    0.34177   0.27848   0.62658   0.00000  Uiso   1.00
Pt1721 Pt    0.34177   0.31013   0.65823   0.00000  Uiso   1.00
Pt1722 Pt    0.34177   0.31013   0.72152   0.00000  Uiso   1.00
Co1723 Co    0.31013   0.27848   0.59494   0.00000  Uiso   1.00
Co1724 Co    0.31013   0.31013   0.68987   0.00000  Uiso   1.00
Co1725 Co    0.34177   0.27848   0.68987   0.00000  Uiso   1.00
Co1726 Co    0.34177   0.31013   0.59494   0.00000  Uiso   1.00
Pt1727 Pt    0.37342   0.27848   0.65823   0.00000  Uiso   1.00
Pt1728 Pt    0.37342   0.31013   0.62658   0.00000  Uiso   1.00
Pt1729 Pt    0.40506   0.27848   0.62658   0.00000  Uiso   1.00
Pt1730 Pt    0.40506   0.31013   0.65823   0.00000  Uiso   1.00
Pt1731 Pt    0.40506   0.31013   0.72152   0.00000  Uiso   1.00
Co1732 Co    0.37342   0.27848   0.59494   0.00000  Uiso   1.00
Co1733 Co    0.37342   0.31013   0.68987   0.00000  Uiso   1.00
Co1734 Co    0.40506   0.27848   0.68987   0.00000  Uiso   1.00
Co1735 Co    0.40506   0.31013   0.59494   0.00000  Uiso   1.00
Pt1736 Pt    0.43671   0.27848   0.65823   0.00000  Uiso   1.00
Pt1737 Pt    0.43671   0.27848   0.72152   0.00000  Uiso   1.00
Pt1738 Pt    0.43671   0.31013   0.62658   0.00000  Uiso   1.00
Pt1739 Pt    0.43671   0.31013   0.75316   0.00000  Uiso   1.00
Pt1740 Pt    0.46835   0.27848   0.62658   0.00000  Uiso   1.00
Pt1741 Pt    0.46835   0.31013   0.65823   0.00000  Uiso   1.00
Pt1742 Pt    0.46835   0.31013   0.72152   0.00000  Uiso   1.00
Co1743 Co    0.43671   0.27848   0.59494   0.00000  Uiso   1.00
Co1744 Co    0.43671   0.31013   0.68987   0.00000  Uiso   1.00
Co1745 Co    0.46835   0.27848   0.68987   0.00000  Uiso   1.00
Co1746 Co    0.46835   0.31013   0.59494   0.00000  Uiso   1.00
Pt1747 Pt    0.50000   0.27848   0.65823   0.00000  Uiso   1.00
Pt1748 Pt    0.50000   0.27848   0.72152   0.00000  Uiso   1.00
Pt1749 Pt    0.50000   0.31013   0.62658   0.00000  Uiso   1.00
Pt1750 Pt    0.50000   0.31013   0.75316   0.00000  Uiso   1.00
Pt1751 Pt    0.53165   0.27848   0.62658   0.00000  Uiso   1.00
Pt1752 Pt    0.53165   0.31013   0.65823   0.00000  Uiso   1.00
Pt1753 Pt    0.53165   0.31013   0.72152   0.00000  Uiso   1.00
Co1754 Co    0.50000   0.27848   0.59494   0.00000  Uiso   1.00
Co1755 Co    0.50000   0.31013   0.68987   0.00000  Uiso   1.00
Co1756 Co    0.53165   0.27848   0.68987   0.00000  Uiso   1.00
Co1757 Co    0.53165   0.31013   0.59494   0.00000  Uiso   1.00
Pt1758 Pt    0.56329   0.27848   0.65823   0.00000  Uiso   1.00
Pt1759 Pt    0.56329   0.27848   0.72152   0.00000  Uiso   1.00
Pt1760 Pt    0.56329   0.31013   0.62658   0.00000  Uiso   1.00
Pt1761 Pt    0.56329   0.31013   0.75316   0.00000  Uiso   1.00
Pt1762 Pt    0.59494   0.27848   0.62658   0.00000  Uiso   1.00
Pt1763 Pt    0.59494   0.31013   0.65823   0.00000  Uiso   1.00
Pt1764 Pt    0.59494   0.31013   0.72152   0.00000  Uiso   1.00
Co1765 Co    0.56329   0.27848   0.59494   0.00000  Uiso   1.00
Co1766 Co    0.56329   0.31013   0.68987   0.00000  Uiso   1.00
Co1767 Co    0.59494   0.27848   0.68987   0.00000  Uiso   1.00
Co1768 Co    0.59494   0.31013   0.59494   0.00000  Uiso   1.00
Pt1769 Pt    0.62658   0.27848   0.65823   0.00000  Uiso   1.00
Pt1770 Pt    0.62658   0.31013   0.62658   0.00000  Uiso   1.00
Pt1771 Pt    0.65823   0.27848   0.62658   0.00000  Uiso   1.00
Pt1772 Pt    0.65823   0.31013   0.65823   0.00000  Uiso   1.00
Pt1773 Pt    0.65823   0.31013   0.72152   0.00000  Uiso   1.00
Co1774 Co    0.62658   0.27848   0.59494   0.00000  Uiso   1.00
Co1775 Co    0.62658   0.31013   0.68987   0.00000  Uiso   1.00
Co1776 Co    0.65823   0.27848   0.68987   0.00000  Uiso   1.00
Co1777 Co    0.65823   0.31013   0.59494   0.00000  Uiso   1.00
Pt1778 Pt    0.68987   0.27848   0.65823   0.00000  Uiso   1.00
Pt1779 Pt    0.68987   0.31013   0.62658   0.00000  Uiso   1.00
Pt1780 Pt    0.72152   0.31013   0.65823   0.00000  Uiso   1.00
Co1781 Co    0.68987   0.27848   0.59494   0.00000  Uiso   1.00
Co1782 Co    0.68987   0.31013   0.68987   0.00000  Uiso   1.00
Co1783 Co    0.72152   0.31013   0.59494   0.00000  Uiso   1.00
Co1784 Co    0.21519   0.37342   0.59494   0.00000  Uiso   1.00
Pt1785 Pt    0.24684   0.37342   0.62658   0.00000  Uiso   1.00
Pt1786 Pt    0.27848   0.34177   0.62658   0.00000  Uiso   1.00
Pt1787 Pt    0.27848   0.37342   0.65823   0.00000  Uiso   1.00
Co1788 Co    0.24684   0.34177   0.59494   0.00000  Uiso   1.00
Co1789 Co    0.27848   0.34177   0.68987   0.00000  Uiso   1.00
Co1790 Co    0.27848   0.37342   0.59494   0.00000  Uiso   1.00
Pt1791 Pt    0.31013   0.34177   0.65823   0.00000  Uiso   1.00
Pt1792 Pt    0.31013   0.34177   0.72152   0.00000  Uiso   1.00
Pt1793 Pt    0.31013   0.37342   0.62658   0.00000  Uiso   1.00
Pt1794 Pt    0.34177   0.34177   0.62658   0.00000  Uiso   1.00
Pt1795 Pt    0.34177   0.37342   0.65823   0.00000  Uiso   1.00
Pt1796 Pt    0.34177   0.37342   0.72152   0.00000  Uiso   1.00
Co1797 Co    0.31013   0.34177   0.59494   0.00000  Uiso   1.00
Co1798 Co    0.31013   0.37342   0.68987   0.00000  Uiso   1.00
Co1799 Co    0.34177   0.34177   0.68987   0.00000  Uiso   1.00
Co1800 Co    0.34177   0.37342   0.59494   0.00000  Uiso   1.00
Pt1801 Pt    0.37342   0.34177   0.65823   0.00000  Uiso   1.00
Pt1802 Pt    0.37342   0.34177   0.72152   0.00000  Uiso   1.00
Pt1803 Pt    0.37342   0.37342   0.62658   0.00000  Uiso   1.00
Pt1804 Pt    0.37342   0.37342   0.75316   0.00000  Uiso   1.00
Pt1805 Pt    0.40506   0.34177   0.62658   0.00000  Uiso   1.00
Pt1806 Pt    0.40506   0.34177   0.75316   0.00000  Uiso   1.00
Pt1807 Pt    0.40506   0.37342   0.65823   0.00000  Uiso   1.00
Pt1808 Pt    0.40506   0.37342   0.72152   0.00000  Uiso   1.00
Co1809 Co    0.37342   0.34177   0.59494   0.00000  Uiso   1.00
Co1810 Co    0.37342   0.37342   0.68987   0.00000  Uiso   1.00
Co1811 Co    0.40506   0.34177   0.68987   0.00000  Uiso   1.00
Co1812 Co    0.40506   0.37342   0.59494   0.00000  Uiso   1.00
Pt1813 Pt    0.43671   0.34177   0.65823   0.00000  Uiso   1.00
Pt1814 Pt    0.43671   0.34177   0.72152   0.00000  Uiso   1.00
Pt1815 Pt    0.43671   0.37342   0.62658   0.00000  Uiso   1.00
Pt1816 Pt    0.43671   0.37342   0.75316   0.00000  Uiso   1.00
Pt1817 Pt    0.46835   0.34177   0.62658   0.00000  Uiso   1.00
Pt1818 Pt    0.46835   0.34177   0.75316   0.00000  Uiso   1.00
Pt1819 Pt    0.46835   0.37342   0.65823   0.00000  Uiso   1.00
Pt1820 Pt    0.46835   0.37342   0.72152   0.00000  Uiso   1.00
Co1821 Co    0.43671   0.34177   0.59494   0.00000  Uiso   1.00
Co1822 Co    0.43671   0.37342   0.68987   0.00000  Uiso   1.00
Co1823 Co    0.46835   0.34177   0.68987   0.00000  Uiso   1.00
Co1824 Co    0.46835   0.37342   0.59494   0.00000  Uiso   1.00
Pt1825 Pt    0.50000   0.34177   0.65823   0.00000  Uiso   1.00
Pt1826 Pt    0.50000   0.34177   0.72152   0.00000  Uiso   1.00
Pt1827 Pt    0.50000   0.37342   0.62658   0.00000  Uiso   1.00
Pt1828 Pt    0.50000   0.37342   0.75316   0.00000  Uiso   1.00
Pt1829 Pt    0.53165   0.34177   0.62658   0.00000  Uiso   1.00
Pt1830 Pt    0.53165   0.34177   0.75316   0.00000  Uiso   1.00
Pt1831 Pt    0.53165   0.37342   0.65823   0.00000  Uiso   1.00
Pt1832 Pt    0.53165   0.37342   0.72152   0.00000  Uiso   1.00
Co1833 Co    0.50000   0.34177   0.59494   0.00000  Uiso   1.00
Co1834 Co    0.50000   0.37342   0.68987   0.00000  Uiso   1.00
Co1835 Co    0.53165   0.34177   0.68987   0.00000  Uiso   1.00
Co1836 Co    0.53165   0.37342   0.59494   0.00000  Uiso   1.00
Pt1837 Pt    0.56329   0.34177   0.65823   0.00000  Uiso   1.00
Pt1838 Pt    0.56329   0.34177   0.72152   0.00000  Uiso   1.00
Pt1839 Pt    0.56329   0.37342   0.62658   0.00000  Uiso   1.00
Pt1840 Pt    0.56329   0.37342   0.75316   0.00000  Uiso   1.00
Pt1841 Pt    0.59494   0.34177   0.62658   0.00000  Uiso   1.00
Pt1842 Pt    0.59494   0.34177   0.75316   0.00000  Uiso   1.00
Pt1843 Pt    0.59494   0.37342   0.65823   0.00000  Uiso   1.00
Pt1844 Pt    0.59494   0.37342   0.72152   0.00000  Uiso   1.00
Co1845 Co    0.56329   0.34177   0.59494   0.00000  Uiso   1.00
Co1846 Co    0.56329   0.37342   0.68987   0.00000  Uiso   1.00
Co1847 Co    0.59494   0.34177   0.68987   0.00000  Uiso   1.00
Co1848 Co    0.59494   0.37342   0.59494   0.00000  Uiso   1.00
Pt1849 Pt    0.62658   0.34177   0.65823   0.00000  Uiso   1.00
Pt1850 Pt    0.62658   0.34177   0.72152   0.00000  Uiso   1.00
Pt1851 Pt    0.62658   0.37342   0.62658   0.00000  Uiso   1.00
Pt1852 Pt    0.62658   0.37342   0.75316   0.00000  Uiso   1.00
Pt1853 Pt    0.65823   0.34177   0.62658   0.00000  Uiso   1.00
Pt1854 Pt    0.65823   0.37342   0.65823   0.00000  Uiso   1.00
Pt1855 Pt    0.65823   0.37342   0.72152   0.00000  Uiso   1.00
Co1856 Co    0.62658   0.34177   0.59494   0.00000  Uiso   1.00
Co1857 Co    0.62658   0.37342   0.68987   0.00000  Uiso   1.00
Co1858 Co    0.65823   0.34177   0.68987   0.00000  Uiso   1.00
Co1859 Co    0.65823   0.37342   0.59494   0.00000  Uiso   1.00
Pt1860 Pt    0.68987   0.34177   0.65823   0.00000  Uiso   1.00
Pt1861 Pt    0.68987   0.34177   0.72152   0.00000  Uiso   1.00
Pt1862 Pt    0.68987   0.37342   0.62658   0.00000  Uiso   1.00
Pt1863 Pt    0.72152   0.34177   0.62658   0.00000  Uiso   1.00
Pt1864 Pt    0.72152   0.37342   0.65823   0.00000  Uiso   1.00
Co1865 Co    0.68987   0.34177   0.59494   0.00000  Uiso   1.00
Co1866 Co    0.68987   0.37342   0.68987   0.00000  Uiso   1.00
Co1867 Co    0.72152   0.34177   0.68987   0.00000  Uiso   1.00
Co1868 Co    0.72152   0.37342   0.59494   0.00000  Uiso   1.00
Pt1869 Pt    0.75316   0.37342   0.62658   0.00000  Uiso   1.00
Co1870 Co    0.75316   0.34177   0.59494   0.00000  Uiso   1.00
Co1871 Co    0.78481   0.37342   0.59494   0.00000  Uiso   1.00
Pt1872 Pt    0.21519   0.40506   0.62658   0.00000  Uiso   1.00
Pt1873 Pt    0.21519   0.43671   0.65823   0.00000  Uiso   1.00
Co1874 Co    0.21519   0.43671   0.59494   0.00000  Uiso   1.00
Pt1875 Pt    0.24684   0.40506   0.65823   0.00000  Uiso   1.00
Pt1876 Pt    0.24684   0.43671   0.62658   0.00000  Uiso   1.00
Pt1877 Pt    0.27848   0.40506   0.62658   0.00000  Uiso   1.00
Pt1878 Pt    0.27848   0.43671   0.65823   0.00000  Uiso   1.00
Pt1879 Pt    0.27848   0.43671   0.72152   0.00000  Uiso   1.00
Co1880 Co    0.24684   0.40506   0.59494   0.00000  Uiso   1.00
Co1881 Co    0.24684   0.43671   0.68987   0.00000  Uiso   1.00
Co1882 Co    0.27848   0.40506   0.68987   0.00000  Uiso   1.00
Co1883 Co    0.27848   0.43671   0.59494   0.00000  Uiso   1.00
Pt1884 Pt    0.31013   0.40506   0.65823   0.00000  Uiso   1.00
Pt1885 Pt    0.31013   0.40506   0.72152   0.00000  Uiso   1.00
Pt1886 Pt    0.31013   0.43671   0.62658   0.00000  Uiso   1.00
Pt1887 Pt    0.31013   0.43671   0.75316   0.00000  Uiso   1.00
Pt1888 Pt    0.34177   0.40506   0.62658   0.00000  Uiso   1.00
Pt1889 Pt    0.34177   0.40506   0.75316   0.00000  Uiso   1.00
Pt1890 Pt    0.34177   0.43671   0.65823   0.00000  Uiso   1.00
Pt1891 Pt    0.34177   0.43671   0.72152   0.00000  Uiso   1.00
Co1892 Co    0.31013   0.40506   0.59494   0.00000  Uiso   1.00
Co1893 Co    0.31013   0.43671   0.68987   0.00000  Uiso   1.00
Co1894 Co    0.34177   0.40506   0.68987   0.00000  Uiso   1.00
Co1895 Co    0.34177   0.43671   0.59494   0.00000  Uiso   1.00
Pt1896 Pt    0.37342   0.40506   0.65823   0.00000  Uiso   1.00
Pt1897 Pt    0.37342   0.40506   0.72152   0.00000  Uiso   1.00
Pt1898 Pt    0.37342   0.43671   0.62658   0.00000  Uiso   1.00
Pt1899 Pt    0.37342   0.43671   0.75316   0.00000  Uiso   1.00
Pt1900 Pt    0.40506   0.40506   0.62658   0.00000  Uiso   1.00
Pt1901 Pt    0.40506   0.40506   0.75316   0.00000  Uiso   1.00
Pt1902 Pt    0.40506   0.43671   0.65823   0.00000  Uiso   1.00
Pt1903 Pt    0.40506   0.43671   0.72152   0.00000  Uiso   1.00
Co1904 Co    0.37342   0.40506   0.59494   0.00000  Uiso   1.00
Co1905 Co    0.37342   0.43671   0.68987   0.00000  Uiso   1.00
Co1906 Co    0.40506   0.40506   0.68987   0.00000  Uiso   1.00
Co1907 Co    0.40506   0.43671   0.59494   0.00000  Uiso   1.00
Pt1908 Pt    0.43671   0.40506   0.65823   0.00000  Uiso   1.00
Pt1909 Pt    0.43671   0.40506   0.72152   0.00000  Uiso   1.00
Pt1910 Pt    0.43671   0.43671   0.62658   0.00000  Uiso   1.00
Pt1911 Pt    0.43671   0.43671   0.75316   0.00000  Uiso   1.00
Pt1912 Pt    0.46835   0.40506   0.62658   0.00000  Uiso   1.00
Pt1913 Pt    0.46835   0.40506   0.75316   0.00000  Uiso   1.00
Pt1914 Pt    0.46835   0.43671   0.65823   0.00000  Uiso   1.00
Pt1915 Pt    0.46835   0.43671   0.72152   0.00000  Uiso   1.00
Co1916 Co    0.43671   0.40506   0.59494   0.00000  Uiso   1.00
Co1917 Co    0.43671   0.43671   0.68987   0.00000  Uiso   1.00
Co1918 Co    0.46835   0.40506   0.68987   0.00000  Uiso   1.00
Co1919 Co    0.46835   0.43671   0.59494   0.00000  Uiso   1.00
Pt1920 Pt    0.50000   0.40506   0.65823   0.00000  Uiso   1.00
Pt1921 Pt    0.50000   0.40506   0.72152   0.00000  Uiso   1.00
Pt1922 Pt    0.50000   0.43671   0.62658   0.00000  Uiso   1.00
Pt1923 Pt    0.50000   0.43671   0.75316   0.00000  Uiso   1.00
Pt1924 Pt    0.53165   0.40506   0.62658   0.00000  Uiso   1.00
Pt1925 Pt    0.53165   0.40506   0.75316   0.00000  Uiso   1.00
Pt1926 Pt    0.53165   0.43671   0.65823   0.00000  Uiso   1.00
Pt1927 Pt    0.53165   0.43671   0.72152   0.00000  Uiso   1.00
Co1928 Co    0.50000   0.40506   0.59494   0.00000  Uiso   1.00
Co1929 Co    0.50000   0.43671   0.68987   0.00000  Uiso   1.00
Co1930 Co    0.53165   0.40506   0.68987   0.00000  Uiso   1.00
Co1931 Co    0.53165   0.43671   0.59494   0.00000  Uiso   1.00
Pt1932 Pt    0.56329   0.40506   0.65823   0.00000  Uiso   1.00
Pt1933 Pt    0.56329   0.40506   0.72152   0.00000  Uiso   1.00
Pt1934 Pt    0.56329   0.43671   0.62658   0.00000  Uiso   1.00
Pt1935 Pt    0.56329   0.43671   0.75316   0.00000  Uiso   1.00
Pt1936 Pt    0.59494   0.40506   0.62658   0.00000  Uiso   1.00
Pt1937 Pt    0.59494   0.40506   0.75316   0.00000  Uiso   1.00
Pt1938 Pt    0.59494   0.43671   0.65823   0.00000  Uiso   1.00
Pt1939 Pt    0.59494   0.43671   0.72152   0.00000  Uiso   1.00
Co1940 Co    0.56329   0.40506   0.59494   0.00000  Uiso   1.00
Co1941 Co    0.56329   0.43671   0.68987   0.00000  Uiso   1.00
Co1942 Co    0.59494   0.40506   0.68987   0.00000  Uiso   1.00
Co1943 Co    0.59494   0.43671   0.59494   0.00000  Uiso   1.00
Pt1944 Pt    0.62658   0.40506   0.65823   0.00000  Uiso   1.00
Pt1945 Pt    0.62658   0.40506   0.72152   0.00000  Uiso   1.00
Pt1946 Pt    0.62658   0.43671   0.62658   0.00000  Uiso   1.00
Pt1947 Pt    0.62658   0.43671   0.75316   0.00000  Uiso   1.00
Pt1948 Pt    0.65823   0.40506   0.62658   0.00000  Uiso   1.00
Pt1949 Pt    0.65823   0.40506   0.75316   0.00000  Uiso   1.00
Pt1950 Pt    0.65823   0.43671   0.65823   0.00000  Uiso   1.00
Pt1951 Pt    0.65823   0.43671   0.72152   0.00000  Uiso   1.00
Co1952 Co    0.62658   0.40506   0.59494   0.00000  Uiso   1.00
Co1953 Co    0.62658   0.43671   0.68987   0.00000  Uiso   1.00
Co1954 Co    0.65823   0.40506   0.68987   0.00000  Uiso   1.00
Co1955 Co    0.65823   0.43671   0.59494   0.00000  Uiso   1.00
Pt1956 Pt    0.68987   0.40506   0.65823   0.00000  Uiso   1.00
Pt1957 Pt    0.68987   0.40506   0.72152   0.00000  Uiso   1.00
Pt1958 Pt    0.68987   0.43671   0.62658   0.00000  Uiso   1.00
Pt1959 Pt    0.68987   0.43671   0.75316   0.00000  Uiso   1.00
Pt1960 Pt    0.72152   0.40506   0.62658   0.00000  Uiso   1.00
Pt1961 Pt    0.72152   0.43671   0.65823   0.00000  Uiso   1.00
Pt1962 Pt    0.72152   0.43671   0.72152   0.00000  Uiso   1.00
Co1963 Co    0.68987   0.40506   0.59494   0.00000  Uiso   1.00
Co1964 Co    0.68987   0.43671   0.68987   0.00000  Uiso   1.00
Co1965 Co    0.72152   0.40506   0.68987   0.00000  Uiso   1.00
Co1966 Co    0.72152   0.43671   0.59494   0.00000  Uiso   1.00
Pt1967 Pt    0.75316   0.40506   0.65823   0.00000  Uiso   1.00
Pt1968 Pt    0.75316   0.43671   0.62658   0.00000  Uiso   1.00
Pt1969 Pt    0.78481   0.40506   0.62658   0.00000  Uiso   1.00
Pt1970 Pt    0.78481   0.43671   0.65823   0.00000  Uiso   1.00
Co1971 Co    0.75316   0.40506   0.59494   0.00000  Uiso   1.00
Co1972 Co    0.75316   0.43671   0.68987   0.00000  Uiso   1.00
Co1973 Co    0.78481   0.43671   0.59494   0.00000  Uiso   1.00
Pt1974 Pt    0.21519   0.46835   0.62658   0.00000  Uiso   1.00
Pt1975 Pt    0.21519   0.50000   0.65823   0.00000  Uiso   1.00
Co1976 Co    0.18355   0.46835   0.59494   0.00000  Uiso   1.00
Co1977 Co    0.21519   0.50000   0.59494   0.00000  Uiso   1.00
Pt1978 Pt    0.24684   0.46835   0.65823   0.00000  Uiso   1.00
Pt1979 Pt    0.24684   0.50000   0.62658   0.00000  Uiso   1.00
Pt1980 Pt    0.27848   0.46835   0.62658   0.00000  Uiso   1.00
Pt1981 Pt    0.27848   0.50000   0.65823   0.00000  Uiso   1.00
Pt1982 Pt    0.27848   0.50000   0.72152   0.00000  Uiso   1.00
Co1983 Co    0.24684   0.46835   0.59494   0.00000  Uiso   1.00
Co1984 Co    0.24684   0.50000   0.68987   0.00000  Uiso   1.00
Co1985 Co    0.27848   0.46835   0.68987   0.00000  Uiso   1.00
Co1986 Co    0.27848   0.50000   0.59494   0.00000  Uiso   1.00
Pt1987 Pt    0.31013   0.46835   0.65823   0.00000  Uiso   1.00
Pt1988 Pt    0.31013   0.46835   0.72152   0.00000  Uiso   1.00
Pt1989 Pt    0.31013   0.50000   0.62658   0.00000  Uiso   1.00
Pt1990 Pt    0.31013   0.50000   0.75316   0.00000  Uiso   1.00
Pt1991 Pt    0.34177   0.46835   0.62658   0.00000  Uiso   1.00
Pt1992 Pt    0.34177   0.46835   0.75316   0.00000  Uiso   1.00
Pt1993 Pt    0.34177   0.50000   0.65823   0.00000  Uiso   1.00
Pt1994 Pt    0.34177   0.50000   0.72152   0.00000  Uiso   1.00
Co1995 Co    0.31013   0.46835   0.59494   0.00000  Uiso   1.00
Co1996 Co    0.31013   0.50000   0.68987   0.00000  Uiso   1.00
Co1997 Co    0.34177   0.46835   0.68987   0.00000  Uiso   1.00
Co1998 Co    0.34177   0.50000   0.59494   0.00000  Uiso   1.00
Pt1999 Pt    0.37342   0.46835   0.65823   0.00000  Uiso   1.00
Pt2000 Pt    0.37342   0.46835   0.72152   0.00000  Uiso   1.00
Pt2001 Pt    0.37342   0.50000   0.62658   0.00000  Uiso   1.00
Pt2002 Pt    0.37342   0.50000   0.75316   0.00000  Uiso   1.00
Pt2003 Pt    0.40506   0.46835   0.62658   0.00000  Uiso   1.00
Pt2004 Pt    0.40506   0.46835   0.75316   0.00000  Uiso   1.00
Pt2005 Pt    0.40506   0.50000   0.65823   0.00000  Uiso   1.00
Pt2006 Pt    0.40506   0.50000   0.72152   0.00000  Uiso   1.00
Co2007 Co    0.37342   0.46835   0.59494   0.00000  Uiso   1.00
Co2008 Co    0.37342   0.50000   0.68987   0.00000  Uiso   1.00
Co2009 Co    0.40506   0.46835   0.68987   0.00000  Uiso   1.00
Co2010 Co    0.40506   0.50000   0.59494   0.00000  Uiso   1.00
Pt2011 Pt    0.43671   0.46835   0.65823   0.00000  Uiso   1.00
Pt2012 Pt    0.43671   0.46835   0.72152   0.00000  Uiso   1.00
Pt2013 Pt    0.43671   0.50000   0.62658   0.00000  Uiso   1.00
Pt2014 Pt    0.43671   0.50000   0.75316   0.00000  Uiso   1.00
Pt2015 Pt    0.46835   0.46835   0.62658   0.00000  Uiso   1.00
Pt2016 Pt    0.46835   0.46835   0.75316   0.00000  Uiso   1.00
Pt2017 Pt    0.46835   0.50000   0.65823   0.00000  Uiso   1.00
Pt2018 Pt    0.46835   0.50000   0.72152   0.00000  Uiso   1.00
Co2019 Co    0.43671   0.46835   0.59494   0.00000  Uiso   1.00
Co2020 Co    0.43671   0.50000   0.68987   0.00000  Uiso   1.00
Co2021 Co    0.46835   0.46835   0.68987   0.00000  Uiso   1.00
Co2022 Co    0.46835   0.50000   0.59494   0.00000  Uiso   1.00
Pt2023 Pt    0.50000   0.46835   0.65823   0.00000  Uiso   1.00
Pt2024 Pt    0.50000   0.46835   0.72152   0.00000  Uiso   1.00
Pt2025 Pt    0.50000   0.50000   0.62658   0.00000  Uiso   1.00
Pt2026 Pt    0.50000   0.50000   0.75316   0.00000  Uiso   1.00
Pt2027 Pt    0.53165   0.46835   0.62658   0.00000  Uiso   1.00
Pt2028 Pt    0.53165   0.46835   0.75316   0.00000  Uiso   1.00
Pt2029 Pt    0.53165   0.50000   0.65823   0.00000  Uiso   1.00
Pt2030 Pt    0.53165   0.50000   0.72152   0.00000  Uiso   1.00
Co2031 Co    0.50000   0.46835   0.59494   0.00000  Uiso   1.00
Co2032 Co    0.50000   0.50000   0.68987   0.00000  Uiso   1.00
Co2033 Co    0.53165   0.46835   0.68987   0.00000  Uiso   1.00
Co2034 Co    0.53165   0.50000   0.59494   0.00000  Uiso   1.00
Pt2035 Pt    0.56329   0.46835   0.65823   0.00000  Uiso   1.00
Pt2036 Pt    0.56329   0.46835   0.72152   0.00000  Uiso   1.00
Pt2037 Pt    0.56329   0.50000   0.62658   0.00000  Uiso   1.00
Pt2038 Pt    0.56329   0.50000   0.75316   0.00000  Uiso   1.00
Pt2039 Pt    0.59494   0.46835   0.62658   0.00000  Uiso   1.00
Pt2040 Pt    0.59494   0.46835   0.75316   0.00000  Uiso   1.00
Pt2041 Pt    0.59494   0.50000   0.65823   0.00000  Uiso   1.00
Pt2042 Pt    0.59494   0.50000   0.72152   0.00000  Uiso   1.00
Co2043 Co    0.56329   0.46835   0.59494   0.00000  Uiso   1.00
Co2044 Co    0.56329   0.50000   0.68987   0.00000  Uiso   1.00
Co2045 Co    0.59494   0.46835   0.68987   0.00000  Uiso   1.00
Co2046 Co    0.59494   0.50000   0.59494   0.00000  Uiso   1.00
Pt2047 Pt    0.62658   0.46835   0.65823   0.00000  Uiso   1.00
Pt2048 Pt    0.62658   0.46835   0.72152   0.00000  Uiso   1.00
Pt2049 Pt    0.62658   0.50000   0.62658   0.00000  Uiso   1.00
Pt2050 Pt    0.62658   0.50000   0.75316   0.00000  Uiso   1.00
Pt2051 Pt    0.65823   0.46835   0.62658   0.00000  Uiso   1.00
Pt2052 Pt    0.65823   0.46835   0.75316   0.00000  Uiso   1.00
Pt2053 Pt    0.65823   0.50000   0.65823   0.00000  Uiso   1.00
Pt2054 Pt    0.65823   0.50000   0.72152   0.00000  Uiso   1.00
Co2055 Co    0.62658   0.46835   0.59494   0.00000  Uiso   1.00
Co2056 Co    0.62658   0.50000   0.68987   0.00000  Uiso   1.00
Co2057 Co    0.65823   0.46835   0.68987   0.00000  Uiso   1.00
Co2058 Co    0.65823   0.50000   0.59494   0.00000  Uiso   1.00
Pt2059 Pt    0.68987   0.46835   0.65823   0.00000  Uiso   1.00
Pt2060 Pt    0.68987   0.46835   0.72152   0.00000  Uiso   1.00
Pt2061 Pt    0.68987   0.50000   0.62658   0.00000  Uiso   1.00
Pt2062 Pt    0.68987   0.50000   0.75316   0.00000  Uiso   1.00
Pt2063 Pt    0.72152   0.46835   0.62658   0.00000  Uiso   1.00
Pt2064 Pt    0.72152   0.50000   0.65823   0.00000  Uiso   1.00
Pt2065 Pt    0.72152   0.50000   0.72152   0.00000  Uiso   1.00
Co2066 Co    0.68987   0.46835   0.59494   0.00000  Uiso   1.00
Co2067 Co    0.68987   0.50000   0.68987   0.00000  Uiso   1.00
Co2068 Co    0.72152   0.46835   0.68987   0.00000  Uiso   1.00
Co2069 Co    0.72152   0.50000   0.59494   0.00000  Uiso   1.00
Pt2070 Pt    0.75316   0.46835   0.65823   0.00000  Uiso   1.00
Pt2071 Pt    0.75316   0.50000   0.62658   0.00000  Uiso   1.00
Pt2072 Pt    0.78481   0.46835   0.62658   0.00000  Uiso   1.00
Pt2073 Pt    0.78481   0.50000   0.65823   0.00000  Uiso   1.00
Co2074 Co    0.75316   0.46835   0.59494   0.00000  Uiso   1.00
Co2075 Co    0.75316   0.50000   0.68987   0.00000  Uiso   1.00
Co2076 Co    0.78481   0.50000   0.59494   0.00000  Uiso   1.00
Co2077 Co    0.81645   0.46835   0.59494   0.00000  Uiso   1.00
Pt2078 Pt    0.21519   0.53165   0.62658   0.00000  Uiso   1.00
Pt2079 Pt    0.21519   0.56329   0.65823   0.00000  Uiso   1.00
Co2080 Co    0.18355   0.53165   0.59494   0.00000  Uiso   1.00
Co2081 Co    0.21519   0.56329   0.59494   0.00000  Uiso   1.00
Pt2082 Pt    0.24684   0.53165   0.65823   0.00000  Uiso   1.00
Pt2083 Pt    0.24684   0.56329   0.62658   0.00000  Uiso   1.00
Pt2084 Pt    0.27848   0.53165   0.62658   0.00000  Uiso   1.00
Pt2085 Pt    0.27848   0.56329   0.65823   0.00000  Uiso   1.00
Pt2086 Pt    0.27848   0.56329   0.72152   0.00000  Uiso   1.00
Co2087 Co    0.24684   0.53165   0.59494   0.00000  Uiso   1.00
Co2088 Co    0.24684   0.56329   0.68987   0.00000  Uiso   1.00
Co2089 Co    0.27848   0.53165   0.68987   0.00000  Uiso   1.00
Co2090 Co    0.27848   0.56329   0.59494   0.00000  Uiso   1.00
Pt2091 Pt    0.31013   0.53165   0.65823   0.00000  Uiso   1.00
Pt2092 Pt    0.31013   0.53165   0.72152   0.00000  Uiso   1.00
Pt2093 Pt    0.31013   0.56329   0.62658   0.00000  Uiso   1.00
Pt2094 Pt    0.31013   0.56329   0.75316   0.00000  Uiso   1.00
Pt2095 Pt    0.34177   0.53165   0.62658   0.00000  Uiso   1.00
Pt2096 Pt    0.34177   0.53165   0.75316   0.00000  Uiso   1.00
Pt2097 Pt    0.34177   0.56329   0.65823   0.00000  Uiso   1.00
Pt2098 Pt    0.34177   0.56329   0.72152   0.00000  Uiso   1.00
Co2099 Co    0.31013   0.53165   0.59494   0.00000  Uiso   1.00
Co2100 Co    0.31013   0.56329   0.68987   0.00000  Uiso   1.00
Co2101 Co    0.34177   0.53165   0.68987   0.00000  Uiso   1.00
Co2102 Co    0.34177   0.56329   0.59494   0.00000  Uiso   1.00
Pt2103 Pt    0.37342   0.53165   0.65823   0.00000  Uiso   1.00
Pt2104 Pt    0.37342   0.53165   0.72152   0.00000  Uiso   1.00
Pt2105 Pt    0.37342   0.56329   0.62658   0.00000  Uiso   1.00
Pt2106 Pt    0.37342   0.56329   0.75316   0.00000  Uiso   1.00
Pt2107 Pt    0.40506   0.53165   0.62658   0.00000  Uiso   1.00
Pt2108 Pt    0.40506   0.53165   0.75316   0.00000  Uiso   1.00
Pt2109 Pt    0.40506   0.56329   0.65823   0.00000  Uiso   1.00
Pt2110 Pt    0.40506   0.56329   0.72152   0.00000  Uiso   1.00
Co2111 Co    0.37342   0.53165   0.59494   0.00000  Uiso   1.00
Co2112 Co    0.37342   0.56329   0.68987   0.00000  Uiso   1.00
Co2113 Co    0.40506   0.53165   0.68987   0.00000  Uiso   1.00
Co2114 Co    0.40506   0.56329   0.59494   0.00000  Uiso   1.00
Pt2115 Pt    0.43671   0.53165   0.65823   0.00000  Uiso   1.00
Pt2116 Pt    0.43671   0.53165   0.72152   0.00000  Uiso   1.00
Pt2117 Pt    0.43671   0.56329   0.62658   0.00000  Uiso   1.00
Pt2118 Pt    0.43671   0.56329   0.75316   0.00000  Uiso   1.00
Pt2119 Pt    0.46835   0.53165   0.62658   0.00000  Uiso   1.00
Pt2120 Pt    0.46835   0.53165   0.75316   0.00000  Uiso   1.00
Pt2121 Pt    0.46835   0.56329   0.65823   0.00000  Uiso   1.00
Pt2122 Pt    0.46835   0.56329   0.72152   0.00000  Uiso   1.00
Co2123 Co    0.43671   0.53165   0.59494   0.00000  Uiso   1.00
Co2124 Co    0.43671   0.56329   0.68987   0.00000  Uiso   1.00
Co2125 Co    0.46835   0.53165   0.68987   0.00000  Uiso   1.00
Co2126 Co    0.46835   0.56329   0.59494   0.00000  Uiso   1.00
Pt2127 Pt    0.50000   0.53165   0.65823   0.00000  Uiso   1.00
Pt2128 Pt    0.50000   0.53165   0.72152   0.00000  Uiso   1.00
Pt2129 Pt    0.50000   0.56329   0.62658   0.00000  Uiso   1.00
Pt2130 Pt    0.50000   0.56329   0.75316   0.00000  Uiso   1.00
Pt2131 Pt    0.53165   0.53165   0.62658   0.00000  Uiso   1.00
Pt2132 Pt    0.53165   0.53165   0.75316   0.00000  Uiso   1.00
Pt2133 Pt    0.53165   0.56329   0.65823   0.00000  Uiso   1.00
Pt2134 Pt    0.53165   0.56329   0.72152   0.00000  Uiso   1.00
Co2135 Co    0.50000   0.53165   0.59494   0.00000  Uiso   1.00
Co2136 Co    0.50000   0.56329   0.68987   0.00000  Uiso   1.00
Co2137 Co    0.53165   0.53165   0.68987   0.00000  Uiso   1.00
Co2138 Co    0.53165   0.56329   0.59494   0.00000  Uiso   1.00
Pt2139 Pt    0.56329   0.53165   0.65823   0.00000  Uiso   1.00
Pt2140 Pt    0.56329   0.53165   0.72152   0.00000  Uiso   1.00
Pt2141 Pt    0.56329   0.56329   0.62658   0.00000  Uiso   1.00
Pt2142 Pt    0.56329   0.56329   0.75316   0.00000  Uiso   1.00
Pt2143 Pt    0.59494   0.53165   0.62658   0.00000  Uiso   1.00
Pt2144 Pt    0.59494   0.53165   0.75316   0.00000  Uiso   1.00
Pt2145 Pt    0.59494   0.56329   0.65823   0.00000  Uiso   1.00
Pt2146 Pt    0.59494   0.56329   0.72152   0.00000  Uiso   1.00
Co2147 Co    0.56329   0.53165   0.59494   0.00000  Uiso   1.00
Co2148 Co    0.56329   0.56329   0.68987   0.00000  Uiso   1.00
Co2149 Co    0.59494   0.53165   0.68987   0.00000  Uiso   1.00
Co2150 Co    0.59494   0.56329   0.59494   0.00000  Uiso   1.00
Pt2151 Pt    0.62658   0.53165   0.65823   0.00000  Uiso   1.00
Pt2152 Pt    0.62658   0.53165   0.72152   0.00000  Uiso   1.00
Pt2153 Pt    0.62658   0.56329   0.62658   0.00000  Uiso   1.00
Pt2154 Pt    0.62658   0.56329   0.75316   0.00000  Uiso   1.00
Pt2155 Pt    0.65823   0.53165   0.62658   0.00000  Uiso   1.00
Pt2156 Pt    0.65823   0.53165   0.75316   0.00000  Uiso   1.00
Pt2157 Pt    0.65823   0.56329   0.65823   0.00000  Uiso   1.00
Pt2158 Pt    0.65823   0.56329   0.72152   0.00000  Uiso   1.00
Co2159 Co    0.62658   0.53165   0.59494   0.00000  Uiso   1.00
Co2160 Co    0.62658   0.56329   0.68987   0.00000  Uiso   1.00
Co2161 Co    0.65823   0.53165   0.68987   0.00000  Uiso   1.00
Co2162 Co    0.65823   0.56329   0.59494   0.00000  Uiso   1.00
Pt2163 Pt    0.68987   0.53165   0.65823   0.00000  Uiso   1.00
Pt2164 Pt    0.68987   0.53165   0.72152   0.00000  Uiso   1.00
Pt2165 Pt    0.68987   0.56329   0.62658   0.00000  Uiso   1.00
Pt2166 Pt    0.68987   0.56329   0.75316   0.00000  Uiso   1.00
Pt2167 Pt    0.72152   0.53165   0.62658   0.00000  Uiso   1.00
Pt2168 Pt    0.72152   0.56329   0.65823   0.00000  Uiso   1.00
Pt2169 Pt    0.72152   0.56329   0.72152   0.00000  Uiso   1.00
Co2170 Co    0.68987   0.53165   0.59494   0.00000  Uiso   1.00
Co2171 Co    0.68987   0.56329   0.68987   0.00000  Uiso   1.00
Co2172 Co    0.72152   0.53165   0.68987   0.00000  Uiso   1.00
Co2173 Co    0.72152   0.56329   0.59494   0.00000  Uiso   1.00
Pt2174 Pt    0.75316   0.53165   0.65823   0.00000  Uiso   1.00
Pt2175 Pt    0.75316   0.56329   0.62658   0.00000  Uiso   1.00
Pt2176 Pt    0.78481   0.53165   0.62658   0.00000  Uiso   1.00
Pt2177 Pt    0.78481   0.56329   0.65823   0.00000  Uiso   1.00
Co2178 Co    0.75316   0.53165   0.59494   0.00000  Uiso   1.00
Co2179 Co    0.75316   0.56329   0.68987   0.00000  Uiso   1.00
Co2180 Co    0.78481   0.56329   0.59494   0.00000  Uiso   1.00
Co2181 Co    0.81645   0.53165   0.59494   0.00000  Uiso   1.00
Pt2182 Pt    0.21519   0.59494   0.62658   0.00000  Uiso   1.00
Co2183 Co    0.21519   0.62658   0.59494   0.00000  Uiso   1.00
Pt2184 Pt    0.24684   0.59494   0.65823   0.00000  Uiso   1.00
Pt2185 Pt    0.24684   0.62658   0.62658   0.00000  Uiso   1.00
Pt2186 Pt    0.27848   0.59494   0.62658   0.00000  Uiso   1.00
Pt2187 Pt    0.27848   0.62658   0.65823   0.00000  Uiso   1.00
Co2188 Co    0.24684   0.59494   0.59494   0.00000  Uiso   1.00
Co2189 Co    0.27848   0.59494   0.68987   0.00000  Uiso   1.00
Co2190 Co    0.27848   0.62658   0.59494   0.00000  Uiso   1.00
Pt2191 Pt    0.31013   0.59494   0.65823   0.00000  Uiso   1.00
Pt2192 Pt    0.31013   0.59494   0.72152   0.00000  Uiso   1.00
Pt2193 Pt    0.31013   0.62658   0.62658   0.00000  Uiso   1.00
Pt2194 Pt    0.34177   0.59494   0.62658   0.00000  Uiso   1.00
Pt2195 Pt    0.34177   0.59494   0.75316   0.00000  Uiso   1.00
Pt2196 Pt    0.34177   0.62658   0.65823   0.00000  Uiso   1.00
Pt2197 Pt    0.34177   0.62658   0.72152   0.00000  Uiso   1.00
Co2198 Co    0.31013   0.59494   0.59494   0.00000  Uiso   1.00
Co2199 Co    0.31013   0.62658   0.68987   0.00000  Uiso   1.00
Co2200 Co    0.34177   0.59494   0.68987   0.00000  Uiso   1.00
Co2201 Co    0.34177   0.62658   0.59494   0.00000  Uiso   1.00
Pt2202 Pt    0.37342   0.59494   0.65823   0.00000  Uiso   1.00
Pt2203 Pt    0.37342   0.59494   0.72152   0.00000  Uiso   1.00
Pt2204 Pt    0.37342   0.62658   0.62658   0.00000  Uiso   1.00
Pt2205 Pt    0.37342   0.62658   0.75316   0.00000  Uiso   1.00
Pt2206 Pt    0.40506   0.59494   0.62658   0.00000  Uiso   1.00
Pt2207 Pt    0.40506   0.59494   0.75316   0.00000  Uiso   1.00
Pt2208 Pt    0.40506   0.62658   0.65823   0.00000  Uiso   1.00
Pt2209 Pt    0.40506   0.62658   0.72152   0.00000  Uiso   1.00
Co2210 Co    0.37342   0.59494   0.59494   0.00000  Uiso   1.00
Co2211 Co    0.37342   0.62658   0.68987   0.00000  Uiso   1.00
Co2212 Co    0.40506   0.59494   0.68987   0.00000  Uiso   1.00
Co2213 Co    0.40506   0.62658   0.59494   0.00000  Uiso   1.00
Pt2214 Pt    0.43671   0.59494   0.65823   0.00000  Uiso   1.00
Pt2215 Pt    0.43671   0.59494   0.72152   0.00000  Uiso   1.00
Pt2216 Pt    0.43671   0.62658   0.62658   0.00000  Uiso   1.00
Pt2217 Pt    0.43671   0.62658   0.75316   0.00000  Uiso   1.00
Pt2218 Pt    0.46835   0.59494   0.62658   0.00000  Uiso   1.00
Pt2219 Pt    0.46835   0.59494   0.75316   0.00000  Uiso   1.00
Pt2220 Pt    0.46835   0.62658   0.65823   0.00000  Uiso   1.00
Pt2221 Pt    0.46835   0.62658   0.72152   0.00000  Uiso   1.00
Co2222 Co    0.43671   0.59494   0.59494   0.00000  Uiso   1.00
Co2223 Co    0.43671   0.62658   0.68987   0.00000  Uiso   1.00
Co2224 Co    0.46835   0.59494   0.68987   0.00000  Uiso   1.00
Co2225 Co    0.46835   0.62658   0.59494   0.00000  Uiso   1.00
Pt2226 Pt    0.50000   0.59494   0.65823   0.00000  Uiso   1.00
Pt2227 Pt    0.50000   0.59494   0.72152   0.00000  Uiso   1.00
Pt2228 Pt    0.50000   0.62658   0.62658   0.00000  Uiso   1.00
Pt2229 Pt    0.50000   0.62658   0.75316   0.00000  Uiso   1.00
Pt2230 Pt    0.53165   0.59494   0.62658   0.00000  Uiso   1.00
Pt2231 Pt    0.53165   0.59494   0.75316   0.00000  Uiso   1.00
Pt2232 Pt    0.53165   0.62658   0.65823   0.00000  Uiso   1.00
Pt2233 Pt    0.53165   0.62658   0.72152   0.00000  Uiso   1.00
Co2234 Co    0.50000   0.59494   0.59494   0.00000  Uiso   1.00
Co2235 Co    0.50000   0.62658   0.68987   0.00000  Uiso   1.00
Co2236 Co    0.53165   0.59494   0.68987   0.00000  Uiso   1.00
Co2237 Co    0.53165   0.62658   0.59494   0.00000  Uiso   1.00
Pt2238 Pt    0.56329   0.59494   0.65823   0.00000  Uiso   1.00
Pt2239 Pt    0.56329   0.59494   0.72152   0.00000  Uiso   1.00
Pt2240 Pt    0.56329   0.62658   0.62658   0.00000  Uiso   1.00
Pt2241 Pt    0.56329   0.62658   0.75316   0.00000  Uiso   1.00
Pt2242 Pt    0.59494   0.59494   0.62658   0.00000  Uiso   1.00
Pt2243 Pt    0.59494   0.59494   0.75316   0.00000  Uiso   1.00
Pt2244 Pt    0.59494   0.62658   0.65823   0.00000  Uiso   1.00
Pt2245 Pt    0.59494   0.62658   0.72152   0.00000  Uiso   1.00
Co2246 Co    0.56329   0.59494   0.59494   0.00000  Uiso   1.00
Co2247 Co    0.56329   0.62658   0.68987   0.00000  Uiso   1.00
Co2248 Co    0.59494   0.59494   0.68987   0.00000  Uiso   1.00
Co2249 Co    0.59494   0.62658   0.59494   0.00000  Uiso   1.00
Pt2250 Pt    0.62658   0.59494   0.65823   0.00000  Uiso   1.00
Pt2251 Pt    0.62658   0.59494   0.72152   0.00000  Uiso   1.00
Pt2252 Pt    0.62658   0.62658   0.62658   0.00000  Uiso   1.00
Pt2253 Pt    0.62658   0.62658   0.75316   0.00000  Uiso   1.00
Pt2254 Pt    0.65823   0.59494   0.62658   0.00000  Uiso   1.00
Pt2255 Pt    0.65823   0.59494   0.75316   0.00000  Uiso   1.00
Pt2256 Pt    0.65823   0.62658   0.65823   0.00000  Uiso   1.00
Pt2257 Pt    0.65823   0.62658   0.72152   0.00000  Uiso   1.00
Co2258 Co    0.62658   0.59494   0.59494   0.00000  Uiso   1.00
Co2259 Co    0.62658   0.62658   0.68987   0.00000  Uiso   1.00
Co2260 Co    0.65823   0.59494   0.68987   0.00000  Uiso   1.00
Co2261 Co    0.65823   0.62658   0.59494   0.00000  Uiso   1.00
Pt2262 Pt    0.68987   0.59494   0.65823   0.00000  Uiso   1.00
Pt2263 Pt    0.68987   0.59494   0.72152   0.00000  Uiso   1.00
Pt2264 Pt    0.68987   0.62658   0.62658   0.00000  Uiso   1.00
Pt2265 Pt    0.72152   0.59494   0.62658   0.00000  Uiso   1.00
Pt2266 Pt    0.72152   0.62658   0.65823   0.00000  Uiso   1.00
Co2267 Co    0.68987   0.59494   0.59494   0.00000  Uiso   1.00
Co2268 Co    0.68987   0.62658   0.68987   0.00000  Uiso   1.00
Co2269 Co    0.72152   0.59494   0.68987   0.00000  Uiso   1.00
Co2270 Co    0.72152   0.62658   0.59494   0.00000  Uiso   1.00
Pt2271 Pt    0.75316   0.59494   0.65823   0.00000  Uiso   1.00
Pt2272 Pt    0.75316   0.62658   0.62658   0.00000  Uiso   1.00
Pt2273 Pt    0.78481   0.59494   0.62658   0.00000  Uiso   1.00
Co2274 Co    0.75316   0.59494   0.59494   0.00000  Uiso   1.00
Co2275 Co    0.78481   0.62658   0.59494   0.00000  Uiso   1.00
Pt2276 Pt    0.27848   0.65823   0.62658   0.00000  Uiso   1.00
Pt2277 Pt    0.27848   0.68987   0.65823   0.00000  Uiso   1.00
Co2278 Co    0.24684   0.65823   0.59494   0.00000  Uiso   1.00
Co2279 Co    0.27848   0.65823   0.68987   0.00000  Uiso   1.00
Co2280 Co    0.27848   0.68987   0.59494   0.00000  Uiso   1.00
Pt2281 Pt    0.31013   0.65823   0.65823   0.00000  Uiso   1.00
Pt2282 Pt    0.31013   0.65823   0.72152   0.00000  Uiso   1.00
Pt2283 Pt    0.31013   0.68987   0.62658   0.00000  Uiso   1.00
Pt2284 Pt    0.34177   0.65823   0.62658   0.00000  Uiso   1.00
Pt2285 Pt    0.34177   0.68987   0.65823   0.00000  Uiso   1.00
Pt2286 Pt    0.34177   0.68987   0.72152   0.00000  Uiso   1.00
Co2287 Co    0.31013   0.65823   0.59494   0.00000  Uiso   1.00
Co2288 Co    0.31013   0.68987   0.68987   0.00000  Uiso   1.00
Co2289 Co    0.34177   0.65823   0.68987   0.00000  Uiso   1.00
Co2290 Co    0.34177   0.68987   0.59494   0.00000  Uiso   1.00
Pt2291 Pt    0.37342   0.65823   0.65823   0.00000  Uiso   1.00
Pt2292 Pt    0.37342   0.65823   0.72152   0.00000  Uiso   1.00
Pt2293 Pt    0.37342   0.68987   0.62658   0.00000  Uiso   1.00
Pt2294 Pt    0.40506   0.65823   0.62658   0.00000  Uiso   1.00
Pt2295 Pt    0.40506   0.65823   0.75316   0.00000  Uiso   1.00
Pt2296 Pt    0.40506   0.68987   0.65823   0.00000  Uiso   1.00
Pt2297 Pt    0.40506   0.68987   0.72152   0.00000  Uiso   1.00
Co2298 Co    0.37342   0.65823   0.59494   0.00000  Uiso   1.00
Co2299 Co    0.37342   0.68987   0.68987   0.00000  Uiso   1.00
Co2300 Co    0.40506   0.65823   0.68987   0.00000  Uiso   1.00
Co2301 Co    0.40506   0.68987   0.59494   0.00000  Uiso   1.00
Pt2302 Pt    0.43671   0.65823   0.65823   0.00000  Uiso   1.00
Pt2303 Pt    0.43671   0.65823   0.72152   0.00000  Uiso   1.00
Pt2304 Pt    0.43671   0.68987   0.62658   0.00000  Uiso   1.00
Pt2305 Pt    0.43671   0.68987   0.75316   0.00000  Uiso   1.00
Pt2306 Pt    0.46835   0.65823   0.62658   0.00000  Uiso   1.00
Pt2307 Pt    0.46835   0.65823   0.75316   0.00000  Uiso   1.00
Pt2308 Pt    0.46835   0.68987   0.65823   0.00000  Uiso   1.00
Pt2309 Pt    0.46835   0.68987   0.72152   0.00000  Uiso   1.00
Co2310 Co    0.43671   0.65823   0.59494   0.00000  Uiso   1.00
Co2311 Co    0.43671   0.68987   0.68987   0.00000  Uiso   1.00
Co2312 Co    0.46835   0.65823   0.68987   0.00000  Uiso   1.00
Co2313 Co    0.46835   0.68987   0.59494   0.00000  Uiso   1.00
Pt2314 Pt    0.50000   0.65823   0.65823   0.00000  Uiso   1.00
Pt2315 Pt    0.50000   0.65823   0.72152   0.00000  Uiso   1.00
Pt2316 Pt    0.50000   0.68987   0.62658   0.00000  Uiso   1.00
Pt2317 Pt    0.50000   0.68987   0.75316   0.00000  Uiso   1.00
Pt2318 Pt    0.53165   0.65823   0.62658   0.00000  Uiso   1.00
Pt2319 Pt    0.53165   0.65823   0.75316   0.00000  Uiso   1.00
Pt2320 Pt    0.53165   0.68987   0.65823   0.00000  Uiso   1.00
Pt2321 Pt    0.53165   0.68987   0.72152   0.00000  Uiso   1.00
Co2322 Co    0.50000   0.65823   0.59494   0.00000  Uiso   1.00
Co2323 Co    0.50000   0.68987   0.68987   0.00000  Uiso   1.00
Co2324 Co    0.53165   0.65823   0.68987   0.00000  Uiso   1.00
Co2325 Co    0.53165   0.68987   0.59494   0.00000  Uiso   1.00
Pt2326 Pt    0.56329   0.65823   0.65823   0.00000  Uiso   1.00
Pt2327 Pt    0.56329   0.65823   0.72152   0.00000  Uiso   1.00
Pt2328 Pt    0.56329   0.68987   0.62658   0.00000  Uiso   1.00
Pt2329 Pt    0.56329   0.68987   0.75316   0.00000  Uiso   1.00
Pt2330 Pt    0.59494   0.65823   0.62658   0.00000  Uiso   1.00
Pt2331 Pt    0.59494   0.65823   0.75316   0.00000  Uiso   1.00
Pt2332 Pt    0.59494   0.68987   0.65823   0.00000  Uiso   1.00
Pt2333 Pt    0.59494   0.68987   0.72152   0.00000  Uiso   1.00
Co2334 Co    0.56329   0.65823   0.59494   0.00000  Uiso   1.00
Co2335 Co    0.56329   0.68987   0.68987   0.00000  Uiso   1.00
Co2336 Co    0.59494   0.65823   0.68987   0.00000  Uiso   1.00
Co2337 Co    0.59494   0.68987   0.59494   0.00000  Uiso   1.00
Pt2338 Pt    0.62658   0.65823   0.65823   0.00000  Uiso   1.00
Pt2339 Pt    0.62658   0.65823   0.72152   0.00000  Uiso   1.00
Pt2340 Pt    0.62658   0.68987   0.62658   0.00000  Uiso   1.00
Pt2341 Pt    0.65823   0.65823   0.62658   0.00000  Uiso   1.00
Pt2342 Pt    0.65823   0.68987   0.65823   0.00000  Uiso   1.00
Pt2343 Pt    0.65823   0.68987   0.72152   0.00000  Uiso   1.00
Co2344 Co    0.62658   0.65823   0.59494   0.00000  Uiso   1.00
Co2345 Co    0.62658   0.68987   0.68987   0.00000  Uiso   1.00
Co2346 Co    0.65823   0.65823   0.68987   0.00000  Uiso   1.00
Co2347 Co    0.65823   0.68987   0.59494   0.00000  Uiso   1.00
Pt2348 Pt    0.68987   0.65823   0.65823   0.00000  Uiso   1.00
Pt2349 Pt    0.68987   0.65823   0.72152   0.00000  Uiso   1.00
Pt2350 Pt    0.68987   0.68987   0.62658   0.00000  Uiso   1.00
Pt2351 Pt    0.72152   0.65823   0.62658   0.00000  Uiso   1.00
Pt2352 Pt    0.72152   0.68987   0.65823   0.00000  Uiso   1.00
Co2353 Co    0.68987   0.65823   0.59494   0.00000  Uiso   1.00
Co2354 Co    0.68987   0.68987   0.68987   0.00000  Uiso   1.00
Co2355 Co    0.72152   0.65823   0.68987   0.00000  Uiso   1.00
Co2356 Co    0.72152   0.68987   0.59494   0.00000  Uiso   1.00
Co2357 Co    0.75316   0.65823   0.59494   0.00000  Uiso   1.00
Pt2358 Pt    0.31013   0.72152   0.65823   0.00000  Uiso   1.00
Pt2359 Pt    0.34177   0.72152   0.62658   0.00000  Uiso   1.00
Co2360 Co    0.31013   0.72152   0.59494   0.00000  Uiso   1.00
Co2361 Co    0.34177   0.72152   0.68987   0.00000  Uiso   1.00
Co2362 Co    0.34177   0.75316   0.59494   0.00000  Uiso   1.00
Pt2363 Pt    0.37342   0.72152   0.65823   0.00000  Uiso   1.00
Pt2364 Pt    0.37342   0.75316   0.62658   0.00000  Uiso   1.00
Pt2365 Pt    0.40506   0.72152   0.62658   0.00000  Uiso   1.00
Pt2366 Pt    0.40506   0.75316   0.65823   0.00000  Uiso   1.00
Co2367 Co    0.37342   0.72152   0.59494   0.00000  Uiso   1.00
Co2368 Co    0.40506   0.72152   0.68987   0.00000  Uiso   1.00
Co2369 Co    0.40506   0.75316   0.59494   0.00000  Uiso   1.00
Pt2370 Pt    0.43671   0.72152   0.65823   0.00000  Uiso   1.00
Pt2371 Pt    0.43671   0.72152   0.72152   0.00000  Uiso   1.00
Pt2372 Pt    0.43671   0.75316   0.62658   0.00000  Uiso   1.00
Pt2373 Pt    0.46835   0.72152   0.62658   0.00000  Uiso   1.00
Pt2374 Pt    0.46835   0.75316   0.65823   0.00000  Uiso   1.00
Co2375 Co    0.43671   0.72152   0.59494   0.00000  Uiso   1.00
Co2376 Co    0.43671   0.75316   0.68987   0.00000  Uiso   1.00
Co2377 Co    0.46835   0.72152   0.68987   0.00000  Uiso   1.00
Co2378 Co    0.46835   0.75316   0.59494   0.00000  Uiso   1.00
Pt2379 Pt    0.50000   0.72152   0.65823   0.00000  Uiso   1.00
Pt2380 Pt    0.50000   0.72152   0.72152   0.00000  Uiso   1.00
Pt2381 Pt    0.50000   0.75316   0.62658   0.00000  Uiso   1.00
Pt2382 Pt    0.53165   0.72152   0.62658   0.00000  Uiso   1.00
Pt2383 Pt    0.53165   0.75316   0.65823   0.00000  Uiso   1.00
Co2384 Co    0.50000   0.72152   0.59494   0.00000  Uiso   1.00
Co2385 Co    0.50000   0.75316   0.68987   0.00000  Uiso   1.00
Co2386 Co    0.53165   0.72152   0.68987   0.00000  Uiso   1.00
Co2387 Co    0.53165   0.75316   0.59494   0.00000  Uiso   1.00
Pt2388 Pt    0.56329   0.72152   0.65823   0.00000  Uiso   1.00
Pt2389 Pt    0.56329   0.72152   0.72152   0.00000  Uiso   1.00
Pt2390 Pt    0.56329   0.75316   0.62658   0.00000  Uiso   1.00
Pt2391 Pt    0.59494   0.72152   0.62658   0.00000  Uiso   1.00
Pt2392 Pt    0.59494   0.75316   0.65823   0.00000  Uiso   1.00
Co2393 Co    0.56329   0.72152   0.59494   0.00000  Uiso   1.00
Co2394 Co    0.56329   0.75316   0.68987   0.00000  Uiso   1.00
Co2395 Co    0.59494   0.72152   0.68987   0.00000  Uiso   1.00
Co2396 Co    0.59494   0.75316   0.59494   0.00000  Uiso   1.00
Pt2397 Pt    0.62658   0.72152   0.65823   0.00000  Uiso   1.00
Pt2398 Pt    0.62658   0.75316   0.62658   0.00000  Uiso   1.00
Pt2399 Pt    0.65823   0.72152   0.62658   0.00000  Uiso   1.00
Co2400 Co    0.62658   0.72152   0.59494   0.00000  Uiso   1.00
Co2401 Co    0.65823   0.72152   0.68987   0.00000  Uiso   1.00
Co2402 Co    0.65823   0.75316   0.59494   0.00000  Uiso   1.00
Pt2403 Pt    0.68987   0.72152   0.65823   0.00000  Uiso   1.00
Co2404 Co    0.68987   0.72152   0.59494   0.00000  Uiso   1.00
Pt2405 Pt    0.40506   0.78481   0.62658   0.00000  Uiso   1.00
Co2406 Co    0.37342   0.78481   0.59494   0.00000  Uiso   1.00
Pt2407 Pt    0.43671   0.78481   0.65823   0.00000  Uiso   1.00
Pt2408 Pt    0.46835   0.78481   0.62658   0.00000  Uiso   1.00
Co2409 Co    0.43671   0.78481   0.59494   0.00000  Uiso   1.00
Co2410 Co    0.46835   0.81645   0.59494   0.00000  Uiso   1.00
Pt2411 Pt    0.50000   0.78481   0.65823   0.00000  Uiso   1.00
Pt2412 Pt    0.53165   0.78481   0.62658   0.00000  Uiso   1.00
Co2413 Co    0.50000   0.78481   0.59494   0.00000  Uiso   1.00
Co2414 Co    0.53165   0.81645   0.59494   0.00000  Uiso   1.00
Pt2415 Pt    0.56329   0.78481   0.65823   0.00000  Uiso   1.00
Pt2416 Pt    0.59494   0.78481   0.62658   0.00000  Uiso   1.00
Co2417 Co    0.56329   0.78481   0.59494   0.00000  Uiso   1.00
Co2418 Co    0.62658   0.78481   0.59494   0.00000  Uiso   1.00
Co2419 Co    0.40506   0.37342   0.78481   0.00000  Uiso   1.00
Co2420 Co    0.43671   0.34177   0.78481   0.00000  Uiso   1.00
Co2421 Co    0.46835   0.37342   0.78481   0.00000  Uiso   1.00
Co2422 Co    0.50000   0.34177   0.78481   0.00000  Uiso   1.00
Co2423 Co    0.53165   0.37342   0.78481   0.00000  Uiso   1.00
Co2424 Co    0.56329   0.34177   0.78481   0.00000  Uiso   1.00
Co2425 Co    0.59494   0.37342   0.78481   0.00000  Uiso   1.00
Co2426 Co    0.34177   0.43671   0.78481   0.00000  Uiso   1.00
Co2427 Co    0.37342   0.40506   0.78481   0.00000  Uiso   1.00
Co2428 Co    0.40506   0.43671   0.78481   0.00000  Uiso   1.00
Pt2429 Pt    0.43671   0.43671   0.81645   0.00000  Uiso   1.00
Pt2430 Pt    0.46835   0.40506   0.81645   0.00000  Uiso   1.00
Co2431 Co    0.43671   0.40506   0.78481   0.00000  Uiso   1.00
Co2432 Co    0.46835   0.43671   0.78481   0.00000  Uiso   1.00
Pt2433 Pt    0.50000   0.43671   0.81645   0.00000  Uiso   1.00
Pt2434 Pt    0.53165   0.40506   0.81645   0.00000  Uiso   1.00
Co2435 Co    0.50000   0.40506   0.78481   0.00000  Uiso   1.00
Co2436 Co    0.53165   0.43671   0.78481   0.00000  Uiso   1.00
Pt2437 Pt    0.56329   0.43671   0.81645   0.00000  Uiso   1.00
Co2438 Co    0.56329   0.40506   0.78481   0.00000  Uiso   1.00
Co2439 Co    0.59494   0.43671   0.78481   0.00000  Uiso   1.00
Co2440 Co    0.62658   0.40506   0.78481   0.00000  Uiso   1.00
Co2441 Co    0.65823   0.43671   0.78481   0.00000  Uiso   1.00
Co2442 Co    0.34177   0.50000   0.78481   0.00000  Uiso   1.00
Pt2443 Pt    0.40506   0.46835   0.81645   0.00000  Uiso   1.00
Co2444 Co    0.37342   0.46835   0.78481   0.00000  Uiso   1.00
Co2445 Co    0.40506   0.50000   0.78481   0.00000  Uiso   1.00
Pt2446 Pt    0.43671   0.50000   0.81645   0.00000  Uiso   1.00
Pt2447 Pt    0.46835   0.46835   0.81645   0.00000  Uiso   1.00
Co2448 Co    0.43671   0.46835   0.78481   0.00000  Uiso   1.00
Co2449 Co    0.46835   0.50000   0.78481   0.00000  Uiso   1.00
Pt2450 Pt    0.50000   0.50000   0.81645   0.00000  Uiso   1.00
Pt2451 Pt    0.53165   0.46835   0.81645   0.00000  Uiso   1.00
Co2452 Co    0.50000   0.46835   0.78481   0.00000  Uiso   1.00
Co2453 Co    0.53165   0.50000   0.78481   0.00000  Uiso   1.00
Pt2454 Pt    0.56329   0.50000   0.81645   0.00000  Uiso   1.00
Pt2455 Pt    0.59494   0.46835   0.81645   0.00000  Uiso   1.00
Co2456 Co    0.56329   0.46835   0.78481   0.00000  Uiso   1.00
Co2457 Co    0.59494   0.50000   0.78481   0.00000  Uiso   1.00
Co2458 Co    0.62658   0.46835   0.78481   0.00000  Uiso   1.00
Co2459 Co    0.65823   0.50000   0.78481   0.00000  Uiso   1.00
Co2460 Co    0.34177   0.56329   0.78481   0.00000  Uiso   1.00
Pt2461 Pt    0.40506   0.53165   0.81645   0.00000  Uiso   1.00
Co2462 Co    0.37342   0.53165   0.78481   0.00000  Uiso   1.00
Co2463 Co    0.40506   0.56329   0.78481   0.00000  Uiso   1.00
Pt2464 Pt    0.43671   0.56329   0.81645   0.00000  Uiso   1.00
Pt2465 Pt    0.46835   0.53165   0.81645   0.00000  Uiso   1.00
Co2466 Co    0.43671   0.53165   0.78481   0.00000  Uiso   1.00
Co2467 Co    0.46835   0.56329   0.78481   0.00000  Uiso   1.00
Pt2468 Pt    0.50000   0.56329   0.81645   0.00000  Uiso   1.00
Pt2469 Pt    0.53165   0.53165   0.81645   0.00000  Uiso   1.00
Co2470 Co    0.50000   0.53165   0.78481   0.00000  Uiso   1.00
Co2471 Co    0.53165   0.56329   0.78481   0.00000  Uiso   1.00
Pt2472 Pt    0.56329   0.56329   0.81645   0.00000  Uiso   1.00
Pt2473 Pt    0.59494   0.53165   0.81645   0.00000  Uiso   1.00
Co2474 Co    0.56329   0.53165   0.78481   0.00000  Uiso   1.00
Co2475 Co    0.59494   0.56329   0.78481   0.00000  Uiso   1.00
Co2476 Co    0.62658   0.53165   0.78481   0.00000  Uiso   1.00
Co2477 Co    0.65823   0.56329   0.78481   0.00000  Uiso   1.00
Co2478 Co    0.37342   0.59494   0.78481   0.00000  Uiso   1.00
Co2479 Co    0.40506   0.62658   0.78481   0.00000  Uiso   1.00
Pt2480 Pt    0.46835   0.59494   0.81645   0.00000  Uiso   1.00
Co2481 Co    0.43671   0.59494   0.78481   0.00000  Uiso   1.00
Co2482 Co    0.46835   0.62658   0.78481   0.00000  Uiso   1.00
Pt2483 Pt    0.53165   0.59494   0.81645   0.00000  Uiso   1.00
Co2484 Co    0.50000   0.59494   0.78481   0.00000  Uiso   1.00
Co2485 Co    0.53165   0.62658   0.78481   0.00000  Uiso   1.00
Co2486 Co    0.56329   0.59494   0.78481   0.00000  Uiso   1.00
Co2487 Co    0.59494   0.62658   0.78481   0.00000  Uiso   1.00
Co2488 Co    0.62658   0.59494   0.78481   0.00000  Uiso   1.00
Co2489 Co    0.43671   0.65823   0.78481   0.00000  Uiso   1.00
Co2490 Co    0.50000   0.65823   0.78481   0.00000  Uiso   1.00
Co2491 Co    0.56329   0.65823   0.78481   0.00000  Uiso   1.00
